New Loadshape.res_477656_pu npts= 35135 interval=0.25 mult = (file=../../../profiles/res_477656_pu.csv)
