New Loadshape.res_kw_39060_pu npts= 35040 interval=0.25 mult = (file=../../profiles/res_kw_39060_pu.csv) qmult = (file=../../profiles/res_kvar_39060_pu.csv)

New Loadshape.res_kw_19940_pu npts= 35040 interval=0.25 mult = (file=../../profiles/res_kw_19940_pu.csv) qmult = (file=../../profiles/res_kvar_19940_pu.csv)

New Loadshape.res_kw_28547_pu npts= 35040 interval=0.25 mult = (file=../../profiles/res_kw_28547_pu.csv) qmult = (file=../../profiles/res_kvar_28547_pu.csv)

New Loadshape.res_kw_21546_pu npts= 35040 interval=0.25 mult = (file=../../profiles/res_kw_21546_pu.csv) qmult = (file=../../profiles/res_kvar_21546_pu.csv)

New Loadshape.res_kw_17316_pu npts= 35040 interval=0.25 mult = (file=../../profiles/res_kw_17316_pu.csv) qmult = (file=../../profiles/res_kvar_17316_pu.csv)

New Loadshape.res_kw_20177_pu npts= 35040 interval=0.25 mult = (file=../../profiles/res_kw_20177_pu.csv) qmult = (file=../../profiles/res_kvar_20177_pu.csv)

New Loadshape.res_kw_35547_pu npts= 35040 interval=0.25 mult = (file=../../profiles/res_kw_35547_pu.csv) qmult = (file=../../profiles/res_kvar_35547_pu.csv)

New Loadshape.res_kw_15352_pu npts= 35040 interval=0.25 mult = (file=../../profiles/res_kw_15352_pu.csv) qmult = (file=../../profiles/res_kvar_15352_pu.csv)

New Loadshape.res_kw_38274_pu npts= 35040 interval=0.25 mult = (file=../../profiles/res_kw_38274_pu.csv) qmult = (file=../../profiles/res_kvar_38274_pu.csv)

New Loadshape.res_kw_16409_pu npts= 35040 interval=0.25 mult = (file=../../profiles/res_kw_16409_pu.csv) qmult = (file=../../profiles/res_kvar_16409_pu.csv)

New Loadshape.res_kw_14392_pu npts= 35040 interval=0.25 mult = (file=../../profiles/res_kw_14392_pu.csv) qmult = (file=../../profiles/res_kvar_14392_pu.csv)

New Loadshape.res_kw_29764_pu npts= 35040 interval=0.25 mult = (file=../../profiles/res_kw_29764_pu.csv) qmult = (file=../../profiles/res_kvar_29764_pu.csv)

New Loadshape.res_kw_42676_pu npts= 35040 interval=0.25 mult = (file=../../profiles/res_kw_42676_pu.csv) qmult = (file=../../profiles/res_kvar_42676_pu.csv)

New Loadshape.res_kw_20072_pu npts= 35040 interval=0.25 mult = (file=../../profiles/res_kw_20072_pu.csv) qmult = (file=../../profiles/res_kvar_20072_pu.csv)

New Loadshape.res_kw_17898_pu npts= 35040 interval=0.25 mult = (file=../../profiles/res_kw_17898_pu.csv) qmult = (file=../../profiles/res_kvar_17898_pu.csv)

New Loadshape.res_kw_20980_pu npts= 35040 interval=0.25 mult = (file=../../profiles/res_kw_20980_pu.csv) qmult = (file=../../profiles/res_kvar_20980_pu.csv)

New Loadshape.res_kw_6072_pu npts= 35040 interval=0.25 mult = (file=../../profiles/res_kw_6072_pu.csv) qmult = (file=../../profiles/res_kvar_6072_pu.csv)

New Loadshape.res_kw_33922_pu npts= 35040 interval=0.25 mult = (file=../../profiles/res_kw_33922_pu.csv) qmult = (file=../../profiles/res_kvar_33922_pu.csv)

New Loadshape.res_kw_38211_pu npts= 35040 interval=0.25 mult = (file=../../profiles/res_kw_38211_pu.csv) qmult = (file=../../profiles/res_kvar_38211_pu.csv)

New Loadshape.res_kw_13051_pu npts= 35040 interval=0.25 mult = (file=../../profiles/res_kw_13051_pu.csv) qmult = (file=../../profiles/res_kvar_13051_pu.csv)

New Loadshape.res_kw_323_pu npts= 35040 interval=0.25 mult = (file=../../profiles/res_kw_323_pu.csv) qmult = (file=../../profiles/res_kvar_323_pu.csv)

New Loadshape.res_kw_42916_pu npts= 35040 interval=0.25 mult = (file=../../profiles/res_kw_42916_pu.csv) qmult = (file=../../profiles/res_kvar_42916_pu.csv)

New Loadshape.res_kw_42461_pu npts= 35040 interval=0.25 mult = (file=../../profiles/res_kw_42461_pu.csv) qmult = (file=../../profiles/res_kvar_42461_pu.csv)

New Loadshape.res_kw_5157_pu npts= 35040 interval=0.25 mult = (file=../../profiles/res_kw_5157_pu.csv) qmult = (file=../../profiles/res_kvar_5157_pu.csv)

New Loadshape.res_kw_29910_pu npts= 35040 interval=0.25 mult = (file=../../profiles/res_kw_29910_pu.csv) qmult = (file=../../profiles/res_kvar_29910_pu.csv)

New Loadshape.res_kw_25108_pu npts= 35040 interval=0.25 mult = (file=../../profiles/res_kw_25108_pu.csv) qmult = (file=../../profiles/res_kvar_25108_pu.csv)

New Loadshape.res_kw_36601_pu npts= 35040 interval=0.25 mult = (file=../../profiles/res_kw_36601_pu.csv) qmult = (file=../../profiles/res_kvar_36601_pu.csv)

New Loadshape.res_kw_39722_pu npts= 35040 interval=0.25 mult = (file=../../profiles/res_kw_39722_pu.csv) qmult = (file=../../profiles/res_kvar_39722_pu.csv)

New Loadshape.res_kw_12763_pu npts= 35040 interval=0.25 mult = (file=../../profiles/res_kw_12763_pu.csv) qmult = (file=../../profiles/res_kvar_12763_pu.csv)

New Loadshape.res_kw_7369_pu npts= 35040 interval=0.25 mult = (file=../../profiles/res_kw_7369_pu.csv) qmult = (file=../../profiles/res_kvar_7369_pu.csv)

New Loadshape.res_kw_16121_pu npts= 35040 interval=0.25 mult = (file=../../profiles/res_kw_16121_pu.csv) qmult = (file=../../profiles/res_kvar_16121_pu.csv)

New Loadshape.res_kw_5828_pu npts= 35040 interval=0.25 mult = (file=../../profiles/res_kw_5828_pu.csv) qmult = (file=../../profiles/res_kvar_5828_pu.csv)

New Loadshape.res_kw_17996_pu npts= 35040 interval=0.25 mult = (file=../../profiles/res_kw_17996_pu.csv) qmult = (file=../../profiles/res_kvar_17996_pu.csv)

New Loadshape.res_kw_19252_pu npts= 35040 interval=0.25 mult = (file=../../profiles/res_kw_19252_pu.csv) qmult = (file=../../profiles/res_kvar_19252_pu.csv)

New Loadshape.res_kw_20815_pu npts= 35040 interval=0.25 mult = (file=../../profiles/res_kw_20815_pu.csv) qmult = (file=../../profiles/res_kvar_20815_pu.csv)

New Loadshape.res_kw_25797_pu npts= 35040 interval=0.25 mult = (file=../../profiles/res_kw_25797_pu.csv) qmult = (file=../../profiles/res_kvar_25797_pu.csv)

New Loadshape.res_kw_9806_pu npts= 35040 interval=0.25 mult = (file=../../profiles/res_kw_9806_pu.csv) qmult = (file=../../profiles/res_kvar_9806_pu.csv)

New Loadshape.res_kw_34924_pu npts= 35040 interval=0.25 mult = (file=../../profiles/res_kw_34924_pu.csv) qmult = (file=../../profiles/res_kvar_34924_pu.csv)

New Loadshape.res_kw_13706_pu npts= 35040 interval=0.25 mult = (file=../../profiles/res_kw_13706_pu.csv) qmult = (file=../../profiles/res_kvar_13706_pu.csv)

New Loadshape.res_kw_10870_pu npts= 35040 interval=0.25 mult = (file=../../profiles/res_kw_10870_pu.csv) qmult = (file=../../profiles/res_kvar_10870_pu.csv)

New Loadshape.res_kw_25993_pu npts= 35040 interval=0.25 mult = (file=../../profiles/res_kw_25993_pu.csv) qmult = (file=../../profiles/res_kvar_25993_pu.csv)

New Loadshape.res_kw_21712_pu npts= 35040 interval=0.25 mult = (file=../../profiles/res_kw_21712_pu.csv) qmult = (file=../../profiles/res_kvar_21712_pu.csv)

New Loadshape.res_kw_6882_pu npts= 35040 interval=0.25 mult = (file=../../profiles/res_kw_6882_pu.csv) qmult = (file=../../profiles/res_kvar_6882_pu.csv)

New Loadshape.res_kw_15302_pu npts= 35040 interval=0.25 mult = (file=../../profiles/res_kw_15302_pu.csv) qmult = (file=../../profiles/res_kvar_15302_pu.csv)

New Loadshape.res_kw_24879_pu npts= 35040 interval=0.25 mult = (file=../../profiles/res_kw_24879_pu.csv) qmult = (file=../../profiles/res_kvar_24879_pu.csv)

New Loadshape.res_kw_41401_pu npts= 35040 interval=0.25 mult = (file=../../profiles/res_kw_41401_pu.csv) qmult = (file=../../profiles/res_kvar_41401_pu.csv)

New Loadshape.res_kw_29673_pu npts= 35040 interval=0.25 mult = (file=../../profiles/res_kw_29673_pu.csv) qmult = (file=../../profiles/res_kvar_29673_pu.csv)

New Loadshape.res_kw_32783_pu npts= 35040 interval=0.25 mult = (file=../../profiles/res_kw_32783_pu.csv) qmult = (file=../../profiles/res_kvar_32783_pu.csv)

New Loadshape.res_kw_42431_pu npts= 35040 interval=0.25 mult = (file=../../profiles/res_kw_42431_pu.csv) qmult = (file=../../profiles/res_kvar_42431_pu.csv)

New Loadshape.res_kw_24550_pu npts= 35040 interval=0.25 mult = (file=../../profiles/res_kw_24550_pu.csv) qmult = (file=../../profiles/res_kvar_24550_pu.csv)

New Loadshape.res_kw_45190_pu npts= 35040 interval=0.25 mult = (file=../../profiles/res_kw_45190_pu.csv) qmult = (file=../../profiles/res_kvar_45190_pu.csv)

New Loadshape.res_kw_29395_pu npts= 35040 interval=0.25 mult = (file=../../profiles/res_kw_29395_pu.csv) qmult = (file=../../profiles/res_kvar_29395_pu.csv)

New Loadshape.res_kw_10422_pu npts= 35040 interval=0.25 mult = (file=../../profiles/res_kw_10422_pu.csv) qmult = (file=../../profiles/res_kvar_10422_pu.csv)

New Loadshape.res_kw_7720_pu npts= 35040 interval=0.25 mult = (file=../../profiles/res_kw_7720_pu.csv) qmult = (file=../../profiles/res_kvar_7720_pu.csv)

New Loadshape.res_kw_23586_pu npts= 35040 interval=0.25 mult = (file=../../profiles/res_kw_23586_pu.csv) qmult = (file=../../profiles/res_kvar_23586_pu.csv)

New Loadshape.res_kw_40667_pu npts= 35040 interval=0.25 mult = (file=../../profiles/res_kw_40667_pu.csv) qmult = (file=../../profiles/res_kvar_40667_pu.csv)

New Loadshape.res_kw_40947_pu npts= 35040 interval=0.25 mult = (file=../../profiles/res_kw_40947_pu.csv) qmult = (file=../../profiles/res_kvar_40947_pu.csv)

New Loadshape.res_kw_27834_pu npts= 35040 interval=0.25 mult = (file=../../profiles/res_kw_27834_pu.csv) qmult = (file=../../profiles/res_kvar_27834_pu.csv)

New Loadshape.res_kw_15370_pu npts= 35040 interval=0.25 mult = (file=../../profiles/res_kw_15370_pu.csv) qmult = (file=../../profiles/res_kvar_15370_pu.csv)

New Loadshape.res_kw_35369_pu npts= 35040 interval=0.25 mult = (file=../../profiles/res_kw_35369_pu.csv) qmult = (file=../../profiles/res_kvar_35369_pu.csv)

New Loadshape.res_kw_8371_pu npts= 35040 interval=0.25 mult = (file=../../profiles/res_kw_8371_pu.csv) qmult = (file=../../profiles/res_kvar_8371_pu.csv)

New Loadshape.res_kw_30385_pu npts= 35040 interval=0.25 mult = (file=../../profiles/res_kw_30385_pu.csv) qmult = (file=../../profiles/res_kvar_30385_pu.csv)

New Loadshape.res_kw_12646_pu npts= 35040 interval=0.25 mult = (file=../../profiles/res_kw_12646_pu.csv) qmult = (file=../../profiles/res_kvar_12646_pu.csv)

New Loadshape.res_kw_6891_pu npts= 35040 interval=0.25 mult = (file=../../profiles/res_kw_6891_pu.csv) qmult = (file=../../profiles/res_kvar_6891_pu.csv)

New Loadshape.res_kw_17185_pu npts= 35040 interval=0.25 mult = (file=../../profiles/res_kw_17185_pu.csv) qmult = (file=../../profiles/res_kvar_17185_pu.csv)

New Loadshape.res_kw_44186_pu npts= 35040 interval=0.25 mult = (file=../../profiles/res_kw_44186_pu.csv) qmult = (file=../../profiles/res_kvar_44186_pu.csv)

New Loadshape.res_kw_30107_pu npts= 35040 interval=0.25 mult = (file=../../profiles/res_kw_30107_pu.csv) qmult = (file=../../profiles/res_kvar_30107_pu.csv)

New Loadshape.res_kw_27484_pu npts= 35040 interval=0.25 mult = (file=../../profiles/res_kw_27484_pu.csv) qmult = (file=../../profiles/res_kvar_27484_pu.csv)

New Loadshape.res_kw_2474_pu npts= 35040 interval=0.25 mult = (file=../../profiles/res_kw_2474_pu.csv) qmult = (file=../../profiles/res_kvar_2474_pu.csv)

New Loadshape.res_kw_9793_pu npts= 35040 interval=0.25 mult = (file=../../profiles/res_kw_9793_pu.csv) qmult = (file=../../profiles/res_kvar_9793_pu.csv)

New Loadshape.res_kw_25958_pu npts= 35040 interval=0.25 mult = (file=../../profiles/res_kw_25958_pu.csv) qmult = (file=../../profiles/res_kvar_25958_pu.csv)

New Loadshape.res_kw_40878_pu npts= 35040 interval=0.25 mult = (file=../../profiles/res_kw_40878_pu.csv) qmult = (file=../../profiles/res_kvar_40878_pu.csv)

New Loadshape.res_kw_44719_pu npts= 35040 interval=0.25 mult = (file=../../profiles/res_kw_44719_pu.csv) qmult = (file=../../profiles/res_kvar_44719_pu.csv)

New Loadshape.res_kw_1409_pu npts= 35040 interval=0.25 mult = (file=../../profiles/res_kw_1409_pu.csv) qmult = (file=../../profiles/res_kvar_1409_pu.csv)

New Loadshape.res_kw_7277_pu npts= 35040 interval=0.25 mult = (file=../../profiles/res_kw_7277_pu.csv) qmult = (file=../../profiles/res_kvar_7277_pu.csv)

New Loadshape.res_kw_43729_pu npts= 35040 interval=0.25 mult = (file=../../profiles/res_kw_43729_pu.csv) qmult = (file=../../profiles/res_kvar_43729_pu.csv)

New Loadshape.res_kw_29794_pu npts= 35040 interval=0.25 mult = (file=../../profiles/res_kw_29794_pu.csv) qmult = (file=../../profiles/res_kvar_29794_pu.csv)

New Loadshape.res_kw_43287_pu npts= 35040 interval=0.25 mult = (file=../../profiles/res_kw_43287_pu.csv) qmult = (file=../../profiles/res_kvar_43287_pu.csv)

New Loadshape.res_kw_40680_pu npts= 35040 interval=0.25 mult = (file=../../profiles/res_kw_40680_pu.csv) qmult = (file=../../profiles/res_kvar_40680_pu.csv)

New Loadshape.res_kw_38812_pu npts= 35040 interval=0.25 mult = (file=../../profiles/res_kw_38812_pu.csv) qmult = (file=../../profiles/res_kvar_38812_pu.csv)

New Loadshape.res_kw_3541_pu npts= 35040 interval=0.25 mult = (file=../../profiles/res_kw_3541_pu.csv) qmult = (file=../../profiles/res_kvar_3541_pu.csv)

New Loadshape.res_kw_9763_pu npts= 35040 interval=0.25 mult = (file=../../profiles/res_kw_9763_pu.csv) qmult = (file=../../profiles/res_kvar_9763_pu.csv)

New Loadshape.res_kw_32751_pu npts= 35040 interval=0.25 mult = (file=../../profiles/res_kw_32751_pu.csv) qmult = (file=../../profiles/res_kvar_32751_pu.csv)

New Loadshape.res_kw_19827_pu npts= 35040 interval=0.25 mult = (file=../../profiles/res_kw_19827_pu.csv) qmult = (file=../../profiles/res_kvar_19827_pu.csv)

New Loadshape.res_kw_22226_pu npts= 35040 interval=0.25 mult = (file=../../profiles/res_kw_22226_pu.csv) qmult = (file=../../profiles/res_kvar_22226_pu.csv)

New Loadshape.res_kw_10611_pu npts= 35040 interval=0.25 mult = (file=../../profiles/res_kw_10611_pu.csv) qmult = (file=../../profiles/res_kvar_10611_pu.csv)

New Loadshape.res_kw_18572_pu npts= 35040 interval=0.25 mult = (file=../../profiles/res_kw_18572_pu.csv) qmult = (file=../../profiles/res_kvar_18572_pu.csv)

New Loadshape.res_kw_28947_pu npts= 35040 interval=0.25 mult = (file=../../profiles/res_kw_28947_pu.csv) qmult = (file=../../profiles/res_kvar_28947_pu.csv)

New Loadshape.res_kw_1234_pu npts= 35040 interval=0.25 mult = (file=../../profiles/res_kw_1234_pu.csv) qmult = (file=../../profiles/res_kvar_1234_pu.csv)

New Loadshape.res_kw_10264_pu npts= 35040 interval=0.25 mult = (file=../../profiles/res_kw_10264_pu.csv) qmult = (file=../../profiles/res_kvar_10264_pu.csv)

New Loadshape.res_kw_39193_pu npts= 35040 interval=0.25 mult = (file=../../profiles/res_kw_39193_pu.csv) qmult = (file=../../profiles/res_kvar_39193_pu.csv)

New Loadshape.res_kw_21365_pu npts= 35040 interval=0.25 mult = (file=../../profiles/res_kw_21365_pu.csv) qmult = (file=../../profiles/res_kvar_21365_pu.csv)

New Loadshape.res_kw_29237_pu npts= 35040 interval=0.25 mult = (file=../../profiles/res_kw_29237_pu.csv) qmult = (file=../../profiles/res_kvar_29237_pu.csv)

New Loadshape.res_kw_37817_pu npts= 35040 interval=0.25 mult = (file=../../profiles/res_kw_37817_pu.csv) qmult = (file=../../profiles/res_kvar_37817_pu.csv)

New Loadshape.res_kw_29816_pu npts= 35040 interval=0.25 mult = (file=../../profiles/res_kw_29816_pu.csv) qmult = (file=../../profiles/res_kvar_29816_pu.csv)

New Loadshape.res_kw_40960_pu npts= 35040 interval=0.25 mult = (file=../../profiles/res_kw_40960_pu.csv) qmult = (file=../../profiles/res_kvar_40960_pu.csv)

New Loadshape.res_kw_44725_pu npts= 35040 interval=0.25 mult = (file=../../profiles/res_kw_44725_pu.csv) qmult = (file=../../profiles/res_kvar_44725_pu.csv)

New Loadshape.res_kw_39849_pu npts= 35040 interval=0.25 mult = (file=../../profiles/res_kw_39849_pu.csv) qmult = (file=../../profiles/res_kvar_39849_pu.csv)

New Loadshape.res_kw_5334_pu npts= 35040 interval=0.25 mult = (file=../../profiles/res_kw_5334_pu.csv) qmult = (file=../../profiles/res_kvar_5334_pu.csv)

New Loadshape.res_kw_28932_pu npts= 35040 interval=0.25 mult = (file=../../profiles/res_kw_28932_pu.csv) qmult = (file=../../profiles/res_kvar_28932_pu.csv)

New Loadshape.res_kw_43133_pu npts= 35040 interval=0.25 mult = (file=../../profiles/res_kw_43133_pu.csv) qmult = (file=../../profiles/res_kvar_43133_pu.csv)

New Loadshape.res_kw_14102_pu npts= 35040 interval=0.25 mult = (file=../../profiles/res_kw_14102_pu.csv) qmult = (file=../../profiles/res_kvar_14102_pu.csv)

New Loadshape.res_kw_19830_pu npts= 35040 interval=0.25 mult = (file=../../profiles/res_kw_19830_pu.csv) qmult = (file=../../profiles/res_kvar_19830_pu.csv)

New Loadshape.res_kw_311_pu npts= 35040 interval=0.25 mult = (file=../../profiles/res_kw_311_pu.csv) qmult = (file=../../profiles/res_kvar_311_pu.csv)

New Loadshape.res_kw_2691_pu npts= 35040 interval=0.25 mult = (file=../../profiles/res_kw_2691_pu.csv) qmult = (file=../../profiles/res_kvar_2691_pu.csv)

New Loadshape.res_kw_42564_pu npts= 35040 interval=0.25 mult = (file=../../profiles/res_kw_42564_pu.csv) qmult = (file=../../profiles/res_kvar_42564_pu.csv)

New Loadshape.res_kw_39130_pu npts= 35040 interval=0.25 mult = (file=../../profiles/res_kw_39130_pu.csv) qmult = (file=../../profiles/res_kvar_39130_pu.csv)

New Loadshape.res_kw_4116_pu npts= 35040 interval=0.25 mult = (file=../../profiles/res_kw_4116_pu.csv) qmult = (file=../../profiles/res_kvar_4116_pu.csv)

New Loadshape.res_kw_40187_pu npts= 35040 interval=0.25 mult = (file=../../profiles/res_kw_40187_pu.csv) qmult = (file=../../profiles/res_kvar_40187_pu.csv)

New Loadshape.res_kw_6750_pu npts= 35040 interval=0.25 mult = (file=../../profiles/res_kw_6750_pu.csv) qmult = (file=../../profiles/res_kvar_6750_pu.csv)

New Loadshape.res_kw_36889_pu npts= 35040 interval=0.25 mult = (file=../../profiles/res_kw_36889_pu.csv) qmult = (file=../../profiles/res_kvar_36889_pu.csv)

New Loadshape.res_kw_6319_pu npts= 35040 interval=0.25 mult = (file=../../profiles/res_kw_6319_pu.csv) qmult = (file=../../profiles/res_kvar_6319_pu.csv)

New Loadshape.res_kw_38841_pu npts= 35040 interval=0.25 mult = (file=../../profiles/res_kw_38841_pu.csv) qmult = (file=../../profiles/res_kvar_38841_pu.csv)

New Loadshape.res_kw_15299_pu npts= 35040 interval=0.25 mult = (file=../../profiles/res_kw_15299_pu.csv) qmult = (file=../../profiles/res_kvar_15299_pu.csv)

New Loadshape.res_kw_42237_pu npts= 35040 interval=0.25 mult = (file=../../profiles/res_kw_42237_pu.csv) qmult = (file=../../profiles/res_kvar_42237_pu.csv)

New Loadshape.res_kw_13152_pu npts= 35040 interval=0.25 mult = (file=../../profiles/res_kw_13152_pu.csv) qmult = (file=../../profiles/res_kvar_13152_pu.csv)

New Loadshape.res_kw_35570_pu npts= 35040 interval=0.25 mult = (file=../../profiles/res_kw_35570_pu.csv) qmult = (file=../../profiles/res_kvar_35570_pu.csv)

New Loadshape.res_kw_12239_pu npts= 35040 interval=0.25 mult = (file=../../profiles/res_kw_12239_pu.csv) qmult = (file=../../profiles/res_kvar_12239_pu.csv)

New Loadshape.res_kw_12389_pu npts= 35040 interval=0.25 mult = (file=../../profiles/res_kw_12389_pu.csv) qmult = (file=../../profiles/res_kvar_12389_pu.csv)

New Loadshape.res_kw_27486_pu npts= 35040 interval=0.25 mult = (file=../../profiles/res_kw_27486_pu.csv) qmult = (file=../../profiles/res_kvar_27486_pu.csv)

New Loadshape.res_kw_26186_pu npts= 35040 interval=0.25 mult = (file=../../profiles/res_kw_26186_pu.csv) qmult = (file=../../profiles/res_kvar_26186_pu.csv)

New Loadshape.res_kw_37095_pu npts= 35040 interval=0.25 mult = (file=../../profiles/res_kw_37095_pu.csv) qmult = (file=../../profiles/res_kvar_37095_pu.csv)

New Loadshape.res_kw_16586_pu npts= 35040 interval=0.25 mult = (file=../../profiles/res_kw_16586_pu.csv) qmult = (file=../../profiles/res_kvar_16586_pu.csv)

New Loadshape.res_kw_24344_pu npts= 35040 interval=0.25 mult = (file=../../profiles/res_kw_24344_pu.csv) qmult = (file=../../profiles/res_kvar_24344_pu.csv)

New Loadshape.res_kw_31650_pu npts= 35040 interval=0.25 mult = (file=../../profiles/res_kw_31650_pu.csv) qmult = (file=../../profiles/res_kvar_31650_pu.csv)

New Loadshape.res_kw_32430_pu npts= 35040 interval=0.25 mult = (file=../../profiles/res_kw_32430_pu.csv) qmult = (file=../../profiles/res_kvar_32430_pu.csv)

New Loadshape.res_kw_23418_pu npts= 35040 interval=0.25 mult = (file=../../profiles/res_kw_23418_pu.csv) qmult = (file=../../profiles/res_kvar_23418_pu.csv)

New Loadshape.res_kw_43700_pu npts= 35040 interval=0.25 mult = (file=../../profiles/res_kw_43700_pu.csv) qmult = (file=../../profiles/res_kvar_43700_pu.csv)

New Loadshape.res_kw_9863_pu npts= 35040 interval=0.25 mult = (file=../../profiles/res_kw_9863_pu.csv) qmult = (file=../../profiles/res_kvar_9863_pu.csv)

New Loadshape.res_kw_16275_pu npts= 35040 interval=0.25 mult = (file=../../profiles/res_kw_16275_pu.csv) qmult = (file=../../profiles/res_kvar_16275_pu.csv)

New Loadshape.res_kw_24031_pu npts= 35040 interval=0.25 mult = (file=../../profiles/res_kw_24031_pu.csv) qmult = (file=../../profiles/res_kvar_24031_pu.csv)

New Loadshape.res_kw_33887_pu npts= 35040 interval=0.25 mult = (file=../../profiles/res_kw_33887_pu.csv) qmult = (file=../../profiles/res_kvar_33887_pu.csv)

New Loadshape.res_kw_37346_pu npts= 35040 interval=0.25 mult = (file=../../profiles/res_kw_37346_pu.csv) qmult = (file=../../profiles/res_kvar_37346_pu.csv)

New Loadshape.res_kw_35128_pu npts= 35040 interval=0.25 mult = (file=../../profiles/res_kw_35128_pu.csv) qmult = (file=../../profiles/res_kvar_35128_pu.csv)

New Loadshape.res_kw_33314_pu npts= 35040 interval=0.25 mult = (file=../../profiles/res_kw_33314_pu.csv) qmult = (file=../../profiles/res_kvar_33314_pu.csv)

New Loadshape.res_kw_36295_pu npts= 35040 interval=0.25 mult = (file=../../profiles/res_kw_36295_pu.csv) qmult = (file=../../profiles/res_kvar_36295_pu.csv)

New Loadshape.res_kw_127_pu npts= 35040 interval=0.25 mult = (file=../../profiles/res_kw_127_pu.csv) qmult = (file=../../profiles/res_kvar_127_pu.csv)

New Loadshape.res_kw_11598_pu npts= 35040 interval=0.25 mult = (file=../../profiles/res_kw_11598_pu.csv) qmult = (file=../../profiles/res_kvar_11598_pu.csv)

New Loadshape.res_kw_14616_pu npts= 35040 interval=0.25 mult = (file=../../profiles/res_kw_14616_pu.csv) qmult = (file=../../profiles/res_kvar_14616_pu.csv)

New Loadshape.res_kw_5253_pu npts= 35040 interval=0.25 mult = (file=../../profiles/res_kw_5253_pu.csv) qmult = (file=../../profiles/res_kvar_5253_pu.csv)

New Loadshape.res_kw_38756_pu npts= 35040 interval=0.25 mult = (file=../../profiles/res_kw_38756_pu.csv) qmult = (file=../../profiles/res_kvar_38756_pu.csv)

New Loadshape.res_kw_13707_pu npts= 35040 interval=0.25 mult = (file=../../profiles/res_kw_13707_pu.csv) qmult = (file=../../profiles/res_kvar_13707_pu.csv)

New Loadshape.res_kw_29064_pu npts= 35040 interval=0.25 mult = (file=../../profiles/res_kw_29064_pu.csv) qmult = (file=../../profiles/res_kvar_29064_pu.csv)

New Loadshape.res_kw_22481_pu npts= 35040 interval=0.25 mult = (file=../../profiles/res_kw_22481_pu.csv) qmult = (file=../../profiles/res_kvar_22481_pu.csv)

New Loadshape.res_kw_11306_pu npts= 35040 interval=0.25 mult = (file=../../profiles/res_kw_11306_pu.csv) qmult = (file=../../profiles/res_kvar_11306_pu.csv)

New Loadshape.res_kw_12427_pu npts= 35040 interval=0.25 mult = (file=../../profiles/res_kw_12427_pu.csv) qmult = (file=../../profiles/res_kvar_12427_pu.csv)

New Loadshape.res_kw_39518_pu npts= 35040 interval=0.25 mult = (file=../../profiles/res_kw_39518_pu.csv) qmult = (file=../../profiles/res_kvar_39518_pu.csv)

New Loadshape.res_kw_10477_pu npts= 35040 interval=0.25 mult = (file=../../profiles/res_kw_10477_pu.csv) qmult = (file=../../profiles/res_kvar_10477_pu.csv)

New Loadshape.res_kw_36584_pu npts= 35040 interval=0.25 mult = (file=../../profiles/res_kw_36584_pu.csv) qmult = (file=../../profiles/res_kvar_36584_pu.csv)

New Loadshape.res_kw_22918_pu npts= 35040 interval=0.25 mult = (file=../../profiles/res_kw_22918_pu.csv) qmult = (file=../../profiles/res_kvar_22918_pu.csv)

New Loadshape.res_kw_12600_pu npts= 35040 interval=0.25 mult = (file=../../profiles/res_kw_12600_pu.csv) qmult = (file=../../profiles/res_kvar_12600_pu.csv)

New Loadshape.res_kw_21174_pu npts= 35040 interval=0.25 mult = (file=../../profiles/res_kw_21174_pu.csv) qmult = (file=../../profiles/res_kvar_21174_pu.csv)

New Loadshape.res_kw_1076_pu npts= 35040 interval=0.25 mult = (file=../../profiles/res_kw_1076_pu.csv) qmult = (file=../../profiles/res_kvar_1076_pu.csv)

New Loadshape.res_kw_12556_pu npts= 35040 interval=0.25 mult = (file=../../profiles/res_kw_12556_pu.csv) qmult = (file=../../profiles/res_kvar_12556_pu.csv)

New Loadshape.res_kw_42808_pu npts= 35040 interval=0.25 mult = (file=../../profiles/res_kw_42808_pu.csv) qmult = (file=../../profiles/res_kvar_42808_pu.csv)

New Loadshape.res_kw_11801_pu npts= 35040 interval=0.25 mult = (file=../../profiles/res_kw_11801_pu.csv) qmult = (file=../../profiles/res_kvar_11801_pu.csv)

New Loadshape.res_kw_40179_pu npts= 35040 interval=0.25 mult = (file=../../profiles/res_kw_40179_pu.csv) qmult = (file=../../profiles/res_kvar_40179_pu.csv)

New Loadshape.res_kw_16675_pu npts= 35040 interval=0.25 mult = (file=../../profiles/res_kw_16675_pu.csv) qmult = (file=../../profiles/res_kvar_16675_pu.csv)

New Loadshape.res_kw_1256_pu npts= 35040 interval=0.25 mult = (file=../../profiles/res_kw_1256_pu.csv) qmult = (file=../../profiles/res_kvar_1256_pu.csv)

New Loadshape.res_kw_36674_pu npts= 35040 interval=0.25 mult = (file=../../profiles/res_kw_36674_pu.csv) qmult = (file=../../profiles/res_kvar_36674_pu.csv)

New Loadshape.res_kw_37647_pu npts= 35040 interval=0.25 mult = (file=../../profiles/res_kw_37647_pu.csv) qmult = (file=../../profiles/res_kvar_37647_pu.csv)

New Loadshape.res_kw_34379_pu npts= 35040 interval=0.25 mult = (file=../../profiles/res_kw_34379_pu.csv) qmult = (file=../../profiles/res_kvar_34379_pu.csv)

New Loadshape.res_kw_14299_pu npts= 35040 interval=0.25 mult = (file=../../profiles/res_kw_14299_pu.csv) qmult = (file=../../profiles/res_kvar_14299_pu.csv)

New Loadshape.res_kw_30062_pu npts= 35040 interval=0.25 mult = (file=../../profiles/res_kw_30062_pu.csv) qmult = (file=../../profiles/res_kvar_30062_pu.csv)

New Loadshape.res_kw_34857_pu npts= 35040 interval=0.25 mult = (file=../../profiles/res_kw_34857_pu.csv) qmult = (file=../../profiles/res_kvar_34857_pu.csv)

New Loadshape.res_kw_24065_pu npts= 35040 interval=0.25 mult = (file=../../profiles/res_kw_24065_pu.csv) qmult = (file=../../profiles/res_kvar_24065_pu.csv)

New Loadshape.res_kw_7151_pu npts= 35040 interval=0.25 mult = (file=../../profiles/res_kw_7151_pu.csv) qmult = (file=../../profiles/res_kvar_7151_pu.csv)

New Loadshape.res_kw_30420_pu npts= 35040 interval=0.25 mult = (file=../../profiles/res_kw_30420_pu.csv) qmult = (file=../../profiles/res_kvar_30420_pu.csv)

New Loadshape.res_kw_12990_pu npts= 35040 interval=0.25 mult = (file=../../profiles/res_kw_12990_pu.csv) qmult = (file=../../profiles/res_kvar_12990_pu.csv)

New Loadshape.res_kw_32920_pu npts= 35040 interval=0.25 mult = (file=../../profiles/res_kw_32920_pu.csv) qmult = (file=../../profiles/res_kvar_32920_pu.csv)

New Loadshape.res_kw_19946_pu npts= 35040 interval=0.25 mult = (file=../../profiles/res_kw_19946_pu.csv) qmult = (file=../../profiles/res_kvar_19946_pu.csv)

New Loadshape.res_kw_24323_pu npts= 35040 interval=0.25 mult = (file=../../profiles/res_kw_24323_pu.csv) qmult = (file=../../profiles/res_kvar_24323_pu.csv)

New Loadshape.res_kw_40688_pu npts= 35040 interval=0.25 mult = (file=../../profiles/res_kw_40688_pu.csv) qmult = (file=../../profiles/res_kvar_40688_pu.csv)

New Loadshape.res_kw_12357_pu npts= 35040 interval=0.25 mult = (file=../../profiles/res_kw_12357_pu.csv) qmult = (file=../../profiles/res_kvar_12357_pu.csv)

New Loadshape.res_kw_31210_pu npts= 35040 interval=0.25 mult = (file=../../profiles/res_kw_31210_pu.csv) qmult = (file=../../profiles/res_kvar_31210_pu.csv)

New Loadshape.res_kw_36310_pu npts= 35040 interval=0.25 mult = (file=../../profiles/res_kw_36310_pu.csv) qmult = (file=../../profiles/res_kvar_36310_pu.csv)

New Loadshape.res_kw_5391_pu npts= 35040 interval=0.25 mult = (file=../../profiles/res_kw_5391_pu.csv) qmult = (file=../../profiles/res_kvar_5391_pu.csv)

New Loadshape.res_kw_16940_pu npts= 35040 interval=0.25 mult = (file=../../profiles/res_kw_16940_pu.csv) qmult = (file=../../profiles/res_kvar_16940_pu.csv)

New Loadshape.res_kw_888_pu npts= 35040 interval=0.25 mult = (file=../../profiles/res_kw_888_pu.csv) qmult = (file=../../profiles/res_kvar_888_pu.csv)

New Loadshape.res_kw_34043_pu npts= 35040 interval=0.25 mult = (file=../../profiles/res_kw_34043_pu.csv) qmult = (file=../../profiles/res_kvar_34043_pu.csv)

New Loadshape.res_kw_4861_pu npts= 35040 interval=0.25 mult = (file=../../profiles/res_kw_4861_pu.csv) qmult = (file=../../profiles/res_kvar_4861_pu.csv)

New Loadshape.res_kw_32782_pu npts= 35040 interval=0.25 mult = (file=../../profiles/res_kw_32782_pu.csv) qmult = (file=../../profiles/res_kvar_32782_pu.csv)

New Loadshape.res_kw_25658_pu npts= 35040 interval=0.25 mult = (file=../../profiles/res_kw_25658_pu.csv) qmult = (file=../../profiles/res_kvar_25658_pu.csv)

New Loadshape.res_kw_43408_pu npts= 35040 interval=0.25 mult = (file=../../profiles/res_kw_43408_pu.csv) qmult = (file=../../profiles/res_kvar_43408_pu.csv)

New Loadshape.res_kw_28195_pu npts= 35040 interval=0.25 mult = (file=../../profiles/res_kw_28195_pu.csv) qmult = (file=../../profiles/res_kvar_28195_pu.csv)

New Loadshape.res_kw_41288_pu npts= 35040 interval=0.25 mult = (file=../../profiles/res_kw_41288_pu.csv) qmult = (file=../../profiles/res_kvar_41288_pu.csv)

New Loadshape.res_kw_10996_pu npts= 35040 interval=0.25 mult = (file=../../profiles/res_kw_10996_pu.csv) qmult = (file=../../profiles/res_kvar_10996_pu.csv)

New Loadshape.res_kw_1079_pu npts= 35040 interval=0.25 mult = (file=../../profiles/res_kw_1079_pu.csv) qmult = (file=../../profiles/res_kvar_1079_pu.csv)

New Loadshape.res_kw_6215_pu npts= 35040 interval=0.25 mult = (file=../../profiles/res_kw_6215_pu.csv) qmult = (file=../../profiles/res_kvar_6215_pu.csv)

New Loadshape.res_kw_5419_pu npts= 35040 interval=0.25 mult = (file=../../profiles/res_kw_5419_pu.csv) qmult = (file=../../profiles/res_kvar_5419_pu.csv)
