New Loadshape.1552053_30.44_-97.63_2019 npts= 35040 interval=0.25 mult = (file=../../pv-profiles/1552053_30.44_-97.63_2019.csv)
New Loadshape.1557038_30.40_-97.57_2019 npts= 35040 interval=0.25 mult = (file=../../pv-profiles/1557038_30.40_-97.57_2019.csv)
New Loadshape.1542083_30.28_-97.75_2019 npts= 35040 interval=0.25 mult = (file=../../pv-profiles/1542083_30.28_-97.75_2019.csv)
New Loadshape.1566661_30.26_-97.45_2019 npts= 35040 interval=0.25 mult = (file=../../pv-profiles/1566661_30.26_-97.45_2019.csv)
New Loadshape.1557037_30.42_-97.57_2019 npts= 35040 interval=0.25 mult = (file=../../pv-profiles/1557037_30.42_-97.57_2019.csv)
New Loadshape.1518806_30.26_-98.03_2019 npts= 35040 interval=0.25 mult = (file=../../pv-profiles/1518806_30.26_-98.03_2019.csv)
New Loadshape.1569766_30.24_-97.41_2019 npts= 35040 interval=0.25 mult = (file=../../pv-profiles/1569766_30.24_-97.41_2019.csv)
New Loadshape.1545409_30.28_-97.71_2019 npts= 35040 interval=0.25 mult = (file=../../pv-profiles/1545409_30.28_-97.71_2019.csv)
New Loadshape.1571310_30.26_-97.39_2019 npts= 35040 interval=0.25 mult = (file=../../pv-profiles/1571310_30.26_-97.39_2019.csv)
New Loadshape.1561945_30.32_-97.51_2019 npts= 35040 interval=0.25 mult = (file=../../pv-profiles/1561945_30.32_-97.51_2019.csv)
New Loadshape.1535431_30.28_-97.83_2019 npts= 35040 interval=0.25 mult = (file=../../pv-profiles/1535431_30.28_-97.83_2019.csv)
New Loadshape.1558694_30.42_-97.55_2019 npts= 35040 interval=0.25 mult = (file=../../pv-profiles/1558694_30.42_-97.55_2019.csv)
New Loadshape.1571315_30.16_-97.39_2019 npts= 35040 interval=0.25 mult = (file=../../pv-profiles/1571315_30.16_-97.39_2019.csv)
New Loadshape.1537096_30.24_-97.81_2019 npts= 35040 interval=0.25 mult = (file=../../pv-profiles/1537096_30.24_-97.81_2019.csv)
New Loadshape.1557040_30.36_-97.57_2019 npts= 35040 interval=0.25 mult = (file=../../pv-profiles/1557040_30.36_-97.57_2019.csv)
New Loadshape.1565103_30.24_-97.47_2019 npts= 35040 interval=0.25 mult = (file=../../pv-profiles/1565103_30.24_-97.47_2019.csv)
New Loadshape.1557036_30.44_-97.57_2019 npts= 35040 interval=0.25 mult = (file=../../pv-profiles/1557036_30.44_-97.57_2019.csv)
New Loadshape.1553717_30.42_-97.61_2019 npts= 35040 interval=0.25 mult = (file=../../pv-profiles/1553717_30.42_-97.61_2019.csv)
New Loadshape.1566660_30.28_-97.45_2019 npts= 35040 interval=0.25 mult = (file=../../pv-profiles/1566660_30.28_-97.45_2019.csv)
New Loadshape.1571311_30.24_-97.39_2019 npts= 35040 interval=0.25 mult = (file=../../pv-profiles/1571311_30.24_-97.39_2019.csv)
New Loadshape.1569770_30.16_-97.41_2019 npts= 35040 interval=0.25 mult = (file=../../pv-profiles/1569770_30.16_-97.41_2019.csv)
New Loadshape.1543749_30.22_-97.73_2019 npts= 35040 interval=0.25 mult = (file=../../pv-profiles/1543749_30.22_-97.73_2019.csv)
New Loadshape.1508862_30.22_-98.15_2019 npts= 35040 interval=0.25 mult = (file=../../pv-profiles/1508862_30.22_-98.15_2019.csv)
New Loadshape.1565102_30.26_-97.47_2019 npts= 35040 interval=0.25 mult = (file=../../pv-profiles/1565102_30.26_-97.47_2019.csv)
New Loadshape.1558698_30.34_-97.55_2019 npts= 35040 interval=0.25 mult = (file=../../pv-profiles/1558698_30.34_-97.55_2019.csv)
New Loadshape.1558693_30.44_-97.55_2019 npts= 35040 interval=0.25 mult = (file=../../pv-profiles/1558693_30.44_-97.55_2019.csv)
New Loadshape.1535432_30.26_-97.83_2019 npts= 35040 interval=0.25 mult = (file=../../pv-profiles/1535432_30.26_-97.83_2019.csv)
New Loadshape.1505550_30.26_-98.19_2019 npts= 35040 interval=0.25 mult = (file=../../pv-profiles/1505550_30.26_-98.19_2019.csv)
New Loadshape.1535434_30.22_-97.83_2019 npts= 35040 interval=0.25 mult = (file=../../pv-profiles/1535434_30.22_-97.83_2019.csv)
New Loadshape.1558708_30.14_-97.55_2019 npts= 35040 interval=0.25 mult = (file=../../pv-profiles/1558708_30.14_-97.55_2019.csv)
New Loadshape.1560322_30.32_-97.53_2019 npts= 35040 interval=0.25 mult = (file=../../pv-profiles/1560322_30.32_-97.53_2019.csv)
New Loadshape.1565104_30.22_-97.47_2019 npts= 35040 interval=0.25 mult = (file=../../pv-profiles/1565104_30.22_-97.47_2019.csv)
New Loadshape.1572849_30.22_-97.37_2019 npts= 35040 interval=0.25 mult = (file=../../pv-profiles/1572849_30.22_-97.37_2019.csv)
New Loadshape.1568223_30.20_-97.43_2019 npts= 35040 interval=0.25 mult = (file=../../pv-profiles/1568223_30.20_-97.43_2019.csv)
New Loadshape.1542085_30.24_-97.75_2019 npts= 35040 interval=0.25 mult = (file=../../pv-profiles/1542085_30.24_-97.75_2019.csv)
New Loadshape.1505551_30.24_-98.19_2019 npts= 35040 interval=0.25 mult = (file=../../pv-profiles/1505551_30.24_-98.19_2019.csv)
New Loadshape.1566667_30.14_-97.45_2019 npts= 35040 interval=0.25 mult = (file=../../pv-profiles/1566667_30.14_-97.45_2019.csv)
New Loadshape.1557039_30.38_-97.57_2019 npts= 35040 interval=0.25 mult = (file=../../pv-profiles/1557039_30.38_-97.57_2019.csv)
New Loadshape.1557044_30.28_-97.57_2019 npts= 35040 interval=0.25 mult = (file=../../pv-profiles/1557044_30.28_-97.57_2019.csv)
New Loadshape.1550396_30.32_-97.65_2019 npts= 35040 interval=0.25 mult = (file=../../pv-profiles/1550396_30.32_-97.65_2019.csv)
New Loadshape.1540420_30.28_-97.77_2019 npts= 35040 interval=0.25 mult = (file=../../pv-profiles/1540420_30.28_-97.77_2019.csv)
New Loadshape.1538757_30.28_-97.79_2019 npts= 35040 interval=0.25 mult = (file=../../pv-profiles/1538757_30.28_-97.79_2019.csv)
New Loadshape.1569768_30.20_-97.41_2019 npts= 35040 interval=0.25 mult = (file=../../pv-profiles/1569768_30.20_-97.41_2019.csv)
New Loadshape.1563524_30.28_-97.49_2019 npts= 35040 interval=0.25 mult = (file=../../pv-profiles/1563524_30.28_-97.49_2019.csv)
New Loadshape.1508860_30.26_-98.15_2019 npts= 35040 interval=0.25 mult = (file=../../pv-profiles/1508860_30.26_-98.15_2019.csv)
New Loadshape.1558707_30.16_-97.55_2019 npts= 35040 interval=0.25 mult = (file=../../pv-profiles/1558707_30.16_-97.55_2019.csv)
New Loadshape.1543747_30.26_-97.73_2019 npts= 35040 interval=0.25 mult = (file=../../pv-profiles/1543747_30.26_-97.73_2019.csv)
New Loadshape.1553722_30.32_-97.61_2019 npts= 35040 interval=0.25 mult = (file=../../pv-profiles/1553722_30.32_-97.61_2019.csv)
New Loadshape.1572850_30.20_-97.37_2019 npts= 35040 interval=0.25 mult = (file=../../pv-profiles/1572850_30.20_-97.37_2019.csv)
New Loadshape.1552059_30.32_-97.63_2019 npts= 35040 interval=0.25 mult = (file=../../pv-profiles/1552059_30.32_-97.63_2019.csv)
New Loadshape.1561952_30.18_-97.51_2019 npts= 35040 interval=0.25 mult = (file=../../pv-profiles/1561952_30.18_-97.51_2019.csv)
New Loadshape.1571316_30.14_-97.39_2019 npts= 35040 interval=0.25 mult = (file=../../pv-profiles/1571316_30.14_-97.39_2019.csv)
New Loadshape.1518808_30.22_-98.03_2019 npts= 35040 interval=0.25 mult = (file=../../pv-profiles/1518808_30.22_-98.03_2019.csv)
New Loadshape.1574384_30.26_-97.35_2019 npts= 35040 interval=0.25 mult = (file=../../pv-profiles/1574384_30.26_-97.35_2019.csv)
New Loadshape.1561953_30.16_-97.51_2019 npts= 35040 interval=0.25 mult = (file=../../pv-profiles/1561953_30.16_-97.51_2019.csv)
New Loadshape.1563526_30.24_-97.49_2019 npts= 35040 interval=0.25 mult = (file=../../pv-profiles/1563526_30.24_-97.49_2019.csv)
New Loadshape.1558700_30.30_-97.55_2019 npts= 35040 interval=0.25 mult = (file=../../pv-profiles/1558700_30.30_-97.55_2019.csv)
New Loadshape.1540423_30.22_-97.77_2019 npts= 35040 interval=0.25 mult = (file=../../pv-profiles/1540423_30.22_-97.77_2019.csv)
New Loadshape.1572846_30.28_-97.37_2019 npts= 35040 interval=0.25 mult = (file=../../pv-profiles/1572846_30.28_-97.37_2019.csv)
New Loadshape.1550397_30.30_-97.65_2019 npts= 35040 interval=0.25 mult = (file=../../pv-profiles/1550397_30.30_-97.65_2019.csv)
New Loadshape.1561954_30.14_-97.51_2019 npts= 35040 interval=0.25 mult = (file=../../pv-profiles/1561954_30.14_-97.51_2019.csv)
New Loadshape.1560318_30.40_-97.53_2019 npts= 35040 interval=0.25 mult = (file=../../pv-profiles/1560318_30.40_-97.53_2019.csv)
New Loadshape.1566664_30.20_-97.45_2019 npts= 35040 interval=0.25 mult = (file=../../pv-profiles/1566664_30.20_-97.45_2019.csv)
New Loadshape.1515489_30.24_-98.07_2019 npts= 35040 interval=0.25 mult = (file=../../pv-profiles/1515489_30.24_-98.07_2019.csv)
New Loadshape.1561947_30.28_-97.51_2019 npts= 35040 interval=0.25 mult = (file=../../pv-profiles/1561947_30.28_-97.51_2019.csv)
New Loadshape.1558696_30.38_-97.55_2019 npts= 35040 interval=0.25 mult = (file=../../pv-profiles/1558696_30.38_-97.55_2019.csv)
New Loadshape.1552056_30.38_-97.63_2019 npts= 35040 interval=0.25 mult = (file=../../pv-profiles/1552056_30.38_-97.63_2019.csv)
New Loadshape.1555384_30.34_-97.59_2019 npts= 35040 interval=0.25 mult = (file=../../pv-profiles/1555384_30.34_-97.59_2019.csv)
New Loadshape.1510518_30.24_-98.13_2019 npts= 35040 interval=0.25 mult = (file=../../pv-profiles/1510518_30.24_-98.13_2019.csv)
New Loadshape.1569764_30.28_-97.41_2019 npts= 35040 interval=0.25 mult = (file=../../pv-profiles/1569764_30.28_-97.41_2019.csv)
New Loadshape.1557043_30.30_-97.57_2019 npts= 35040 interval=0.25 mult = (file=../../pv-profiles/1557043_30.30_-97.57_2019.csv)
New Loadshape.1560331_30.14_-97.53_2019 npts= 35040 interval=0.25 mult = (file=../../pv-profiles/1560331_30.14_-97.53_2019.csv)
New Loadshape.1558704_30.22_-97.55_2019 npts= 35040 interval=0.25 mult = (file=../../pv-profiles/1558704_30.22_-97.55_2019.csv)
New Loadshape.1563531_30.14_-97.49_2019 npts= 35040 interval=0.25 mult = (file=../../pv-profiles/1563531_30.14_-97.49_2019.csv)
New Loadshape.1571313_30.20_-97.39_2019 npts= 35040 interval=0.25 mult = (file=../../pv-profiles/1571313_30.20_-97.39_2019.csv)
New Loadshape.1552061_30.28_-97.63_2019 npts= 35040 interval=0.25 mult = (file=../../pv-profiles/1552061_30.28_-97.63_2019.csv)
New Loadshape.1515487_30.28_-98.07_2019 npts= 35040 interval=0.25 mult = (file=../../pv-profiles/1515487_30.28_-98.07_2019.csv)
New Loadshape.1561946_30.30_-97.51_2019 npts= 35040 interval=0.25 mult = (file=../../pv-profiles/1561946_30.30_-97.51_2019.csv)
New Loadshape.1565108_30.14_-97.47_2019 npts= 35040 interval=0.25 mult = (file=../../pv-profiles/1565108_30.14_-97.47_2019.csv)
New Loadshape.1571309_30.28_-97.39_2019 npts= 35040 interval=0.25 mult = (file=../../pv-profiles/1571309_30.28_-97.39_2019.csv)
New Loadshape.1569767_30.22_-97.41_2019 npts= 35040 interval=0.25 mult = (file=../../pv-profiles/1569767_30.22_-97.41_2019.csv)
New Loadshape.1560316_30.44_-97.53_2019 npts= 35040 interval=0.25 mult = (file=../../pv-profiles/1560316_30.44_-97.53_2019.csv)
New Loadshape.1574383_30.28_-97.35_2019 npts= 35040 interval=0.25 mult = (file=../../pv-profiles/1574383_30.28_-97.35_2019.csv)
New Loadshape.1507207_30.22_-98.17_2019 npts= 35040 interval=0.25 mult = (file=../../pv-profiles/1507207_30.22_-98.17_2019.csv)
New Loadshape.1553721_30.34_-97.61_2019 npts= 35040 interval=0.25 mult = (file=../../pv-profiles/1553721_30.34_-97.61_2019.csv)
New Loadshape.1545411_30.24_-97.71_2019 npts= 35040 interval=0.25 mult = (file=../../pv-profiles/1545411_30.24_-97.71_2019.csv)
New Loadshape.1553718_30.40_-97.61_2019 npts= 35040 interval=0.25 mult = (file=../../pv-profiles/1553718_30.40_-97.61_2019.csv)
New Loadshape.1566665_30.18_-97.45_2019 npts= 35040 interval=0.25 mult = (file=../../pv-profiles/1566665_30.18_-97.45_2019.csv)
New Loadshape.1512175_30.24_-98.11_2019 npts= 35040 interval=0.25 mult = (file=../../pv-profiles/1512175_30.24_-98.11_2019.csv)
New Loadshape.1566663_30.22_-97.45_2019 npts= 35040 interval=0.25 mult = (file=../../pv-profiles/1566663_30.22_-97.45_2019.csv)
New Loadshape.1558705_30.20_-97.55_2019 npts= 35040 interval=0.25 mult = (file=../../pv-profiles/1558705_30.20_-97.55_2019.csv)
New Loadshape.1510519_30.22_-98.13_2019 npts= 35040 interval=0.25 mult = (file=../../pv-profiles/1510519_30.22_-98.13_2019.csv)
New Loadshape.1543746_30.28_-97.73_2019 npts= 35040 interval=0.25 mult = (file=../../pv-profiles/1543746_30.28_-97.73_2019.csv)
New Loadshape.1557042_30.32_-97.57_2019 npts= 35040 interval=0.25 mult = (file=../../pv-profiles/1557042_30.32_-97.57_2019.csv)
New Loadshape.1563530_30.16_-97.49_2019 npts= 35040 interval=0.25 mult = (file=../../pv-profiles/1563530_30.16_-97.49_2019.csv)
New Loadshape.1555380_30.42_-97.59_2019 npts= 35040 interval=0.25 mult = (file=../../pv-profiles/1555380_30.42_-97.59_2019.csv)
New Loadshape.1560327_30.22_-97.53_2019 npts= 35040 interval=0.25 mult = (file=../../pv-profiles/1560327_30.22_-97.53_2019.csv)
New Loadshape.1558701_30.28_-97.55_2019 npts= 35040 interval=0.25 mult = (file=../../pv-profiles/1558701_30.28_-97.55_2019.csv)
New Loadshape.1572847_30.26_-97.37_2019 npts= 35040 interval=0.25 mult = (file=../../pv-profiles/1572847_30.26_-97.37_2019.csv)
New Loadshape.1553719_30.38_-97.61_2019 npts= 35040 interval=0.25 mult = (file=../../pv-profiles/1553719_30.38_-97.61_2019.csv)
New Loadshape.1571312_30.22_-97.39_2019 npts= 35040 interval=0.25 mult = (file=../../pv-profiles/1571312_30.22_-97.39_2019.csv)
New Loadshape.1543748_30.24_-97.73_2019 npts= 35040 interval=0.25 mult = (file=../../pv-profiles/1543748_30.24_-97.73_2019.csv)
New Loadshape.1547072_30.28_-97.69_2019 npts= 35040 interval=0.25 mult = (file=../../pv-profiles/1547072_30.28_-97.69_2019.csv)
New Loadshape.1558706_30.18_-97.55_2019 npts= 35040 interval=0.25 mult = (file=../../pv-profiles/1558706_30.18_-97.55_2019.csv)
New Loadshape.1512176_30.22_-98.11_2019 npts= 35040 interval=0.25 mult = (file=../../pv-profiles/1512176_30.22_-98.11_2019.csv)
New Loadshape.1547074_30.24_-97.69_2019 npts= 35040 interval=0.25 mult = (file=../../pv-profiles/1547074_30.24_-97.69_2019.csv)
New Loadshape.1563528_30.20_-97.49_2019 npts= 35040 interval=0.25 mult = (file=../../pv-profiles/1563528_30.20_-97.49_2019.csv)
New Loadshape.1507206_30.24_-98.17_2019 npts= 35040 interval=0.25 mult = (file=../../pv-profiles/1507206_30.24_-98.17_2019.csv)
New Loadshape.1507205_30.26_-98.17_2019 npts= 35040 interval=0.25 mult = (file=../../pv-profiles/1507205_30.26_-98.17_2019.csv)
New Loadshape.1512173_30.28_-98.11_2019 npts= 35040 interval=0.25 mult = (file=../../pv-profiles/1512173_30.28_-98.11_2019.csv)
New Loadshape.1517148_30.24_-98.05_2019 npts= 35040 interval=0.25 mult = (file=../../pv-profiles/1517148_30.24_-98.05_2019.csv)
New Loadshape.1517147_30.26_-98.05_2019 npts= 35040 interval=0.25 mult = (file=../../pv-profiles/1517147_30.26_-98.05_2019.csv)
New Loadshape.1545410_30.26_-97.71_2019 npts= 35040 interval=0.25 mult = (file=../../pv-profiles/1545410_30.26_-97.71_2019.csv)
New Loadshape.1553723_30.30_-97.61_2019 npts= 35040 interval=0.25 mult = (file=../../pv-profiles/1553723_30.30_-97.61_2019.csv)
New Loadshape.1561948_30.26_-97.51_2019 npts= 35040 interval=0.25 mult = (file=../../pv-profiles/1561948_30.26_-97.51_2019.csv)
New Loadshape.1563527_30.22_-97.49_2019 npts= 35040 interval=0.25 mult = (file=../../pv-profiles/1563527_30.22_-97.49_2019.csv)
New Loadshape.1550398_30.28_-97.65_2019 npts= 35040 interval=0.25 mult = (file=../../pv-profiles/1550398_30.28_-97.65_2019.csv)
New Loadshape.1513830_30.28_-98.09_2019 npts= 35040 interval=0.25 mult = (file=../../pv-profiles/1513830_30.28_-98.09_2019.csv)
New Loadshape.1555383_30.36_-97.59_2019 npts= 35040 interval=0.25 mult = (file=../../pv-profiles/1555383_30.36_-97.59_2019.csv)
New Loadshape.1571314_30.18_-97.39_2019 npts= 35040 interval=0.25 mult = (file=../../pv-profiles/1571314_30.18_-97.39_2019.csv)
New Loadshape.1537097_30.22_-97.81_2019 npts= 35040 interval=0.25 mult = (file=../../pv-profiles/1537097_30.22_-97.81_2019.csv)
New Loadshape.1558697_30.36_-97.55_2019 npts= 35040 interval=0.25 mult = (file=../../pv-profiles/1558697_30.36_-97.55_2019.csv)
New Loadshape.1552054_30.42_-97.63_2019 npts= 35040 interval=0.25 mult = (file=../../pv-profiles/1552054_30.42_-97.63_2019.csv)
New Loadshape.1566666_30.16_-97.45_2019 npts= 35040 interval=0.25 mult = (file=../../pv-profiles/1566666_30.16_-97.45_2019.csv)
New Loadshape.1568222_30.22_-97.43_2019 npts= 35040 interval=0.25 mult = (file=../../pv-profiles/1568222_30.22_-97.43_2019.csv)
New Loadshape.1568221_30.24_-97.43_2019 npts= 35040 interval=0.25 mult = (file=../../pv-profiles/1568221_30.24_-97.43_2019.csv)
New Loadshape.1574387_30.20_-97.35_2019 npts= 35040 interval=0.25 mult = (file=../../pv-profiles/1574387_30.20_-97.35_2019.csv)
New Loadshape.1518807_30.24_-98.03_2019 npts= 35040 interval=0.25 mult = (file=../../pv-profiles/1518807_30.24_-98.03_2019.csv)
New Loadshape.1537094_30.28_-97.81_2019 npts= 35040 interval=0.25 mult = (file=../../pv-profiles/1537094_30.28_-97.81_2019.csv)
New Loadshape.1574385_30.24_-97.35_2019 npts= 35040 interval=0.25 mult = (file=../../pv-profiles/1574385_30.24_-97.35_2019.csv)
New Loadshape.1552060_30.30_-97.63_2019 npts= 35040 interval=0.25 mult = (file=../../pv-profiles/1552060_30.30_-97.63_2019.csv)
New Loadshape.1535433_30.24_-97.83_2019 npts= 35040 interval=0.25 mult = (file=../../pv-profiles/1535433_30.24_-97.83_2019.csv)
New Loadshape.1569769_30.18_-97.41_2019 npts= 35040 interval=0.25 mult = (file=../../pv-profiles/1569769_30.18_-97.41_2019.csv)
New Loadshape.1542086_30.22_-97.75_2019 npts= 35040 interval=0.25 mult = (file=../../pv-profiles/1542086_30.22_-97.75_2019.csv)
New Loadshape.1507204_30.28_-98.17_2019 npts= 35040 interval=0.25 mult = (file=../../pv-profiles/1507204_30.28_-98.17_2019.csv)
New Loadshape.1518805_30.28_-98.03_2019 npts= 35040 interval=0.25 mult = (file=../../pv-profiles/1518805_30.28_-98.03_2019.csv)
New Loadshape.1510516_30.28_-98.13_2019 npts= 35040 interval=0.25 mult = (file=../../pv-profiles/1510516_30.28_-98.13_2019.csv)
New Loadshape.1568224_30.18_-97.43_2019 npts= 35040 interval=0.25 mult = (file=../../pv-profiles/1568224_30.18_-97.43_2019.csv)
New Loadshape.1545412_30.22_-97.71_2019 npts= 35040 interval=0.25 mult = (file=../../pv-profiles/1545412_30.22_-97.71_2019.csv)
New Loadshape.1557041_30.34_-97.57_2019 npts= 35040 interval=0.25 mult = (file=../../pv-profiles/1557041_30.34_-97.57_2019.csv)
New Loadshape.1561951_30.20_-97.51_2019 npts= 35040 interval=0.25 mult = (file=../../pv-profiles/1561951_30.20_-97.51_2019.csv)
New Loadshape.1561949_30.24_-97.51_2019 npts= 35040 interval=0.25 mult = (file=../../pv-profiles/1561949_30.24_-97.51_2019.csv)
New Loadshape.1560324_30.28_-97.53_2019 npts= 35040 interval=0.25 mult = (file=../../pv-profiles/1560324_30.28_-97.53_2019.csv)
New Loadshape.1560320_30.36_-97.53_2019 npts= 35040 interval=0.25 mult = (file=../../pv-profiles/1560320_30.36_-97.53_2019.csv)
New Loadshape.1540421_30.26_-97.77_2019 npts= 35040 interval=0.25 mult = (file=../../pv-profiles/1540421_30.26_-97.77_2019.csv)
New Loadshape.1552055_30.40_-97.63_2019 npts= 35040 interval=0.25 mult = (file=../../pv-profiles/1552055_30.40_-97.63_2019.csv)
New Loadshape.1555382_30.38_-97.59_2019 npts= 35040 interval=0.25 mult = (file=../../pv-profiles/1555382_30.38_-97.59_2019.csv)
New Loadshape.1505552_30.22_-98.19_2019 npts= 35040 interval=0.25 mult = (file=../../pv-profiles/1505552_30.22_-98.19_2019.csv)
New Loadshape.1537095_30.26_-97.81_2019 npts= 35040 interval=0.25 mult = (file=../../pv-profiles/1537095_30.26_-97.81_2019.csv)
New Loadshape.1561950_30.22_-97.51_2019 npts= 35040 interval=0.25 mult = (file=../../pv-profiles/1561950_30.22_-97.51_2019.csv)
New Loadshape.1508859_30.28_-98.15_2019 npts= 35040 interval=0.25 mult = (file=../../pv-profiles/1508859_30.28_-98.15_2019.csv)
New Loadshape.1572848_30.24_-97.37_2019 npts= 35040 interval=0.25 mult = (file=../../pv-profiles/1572848_30.24_-97.37_2019.csv)
New Loadshape.1565107_30.16_-97.47_2019 npts= 35040 interval=0.25 mult = (file=../../pv-profiles/1565107_30.16_-97.47_2019.csv)
New Loadshape.1560323_30.30_-97.53_2019 npts= 35040 interval=0.25 mult = (file=../../pv-profiles/1560323_30.30_-97.53_2019.csv)
New Loadshape.1555386_30.30_-97.59_2019 npts= 35040 interval=0.25 mult = (file=../../pv-profiles/1555386_30.30_-97.59_2019.csv)
New Loadshape.1515488_30.26_-98.07_2019 npts= 35040 interval=0.25 mult = (file=../../pv-profiles/1515488_30.26_-98.07_2019.csv)
New Loadshape.1568225_30.16_-97.43_2019 npts= 35040 interval=0.25 mult = (file=../../pv-profiles/1568225_30.16_-97.43_2019.csv)
New Loadshape.1517149_30.22_-98.05_2019 npts= 35040 interval=0.25 mult = (file=../../pv-profiles/1517149_30.22_-98.05_2019.csv)
New Loadshape.1508861_30.24_-98.15_2019 npts= 35040 interval=0.25 mult = (file=../../pv-profiles/1508861_30.24_-98.15_2019.csv)
New Loadshape.1569771_30.14_-97.41_2019 npts= 35040 interval=0.25 mult = (file=../../pv-profiles/1569771_30.14_-97.41_2019.csv)
New Loadshape.1513833_30.22_-98.09_2019 npts= 35040 interval=0.25 mult = (file=../../pv-profiles/1513833_30.22_-98.09_2019.csv)
New Loadshape.1566662_30.24_-97.45_2019 npts= 35040 interval=0.25 mult = (file=../../pv-profiles/1566662_30.24_-97.45_2019.csv)
New Loadshape.1538758_30.26_-97.79_2019 npts= 35040 interval=0.25 mult = (file=../../pv-profiles/1538758_30.26_-97.79_2019.csv)
New Loadshape.1565101_30.28_-97.47_2019 npts= 35040 interval=0.25 mult = (file=../../pv-profiles/1565101_30.28_-97.47_2019.csv)
New Loadshape.1560319_30.38_-97.53_2019 npts= 35040 interval=0.25 mult = (file=../../pv-profiles/1560319_30.38_-97.53_2019.csv)
New Loadshape.1568226_30.14_-97.43_2019 npts= 35040 interval=0.25 mult = (file=../../pv-profiles/1568226_30.14_-97.43_2019.csv)
New Loadshape.1555379_30.44_-97.59_2019 npts= 35040 interval=0.25 mult = (file=../../pv-profiles/1555379_30.44_-97.59_2019.csv)
New Loadshape.1552057_30.36_-97.63_2019 npts= 35040 interval=0.25 mult = (file=../../pv-profiles/1552057_30.36_-97.63_2019.csv)
New Loadshape.1555387_30.28_-97.59_2019 npts= 35040 interval=0.25 mult = (file=../../pv-profiles/1555387_30.28_-97.59_2019.csv)
New Loadshape.1540422_30.24_-97.77_2019 npts= 35040 interval=0.25 mult = (file=../../pv-profiles/1540422_30.24_-97.77_2019.csv)
New Loadshape.1553720_30.36_-97.61_2019 npts= 35040 interval=0.25 mult = (file=../../pv-profiles/1553720_30.36_-97.61_2019.csv)
New Loadshape.1563525_30.26_-97.49_2019 npts= 35040 interval=0.25 mult = (file=../../pv-profiles/1563525_30.26_-97.49_2019.csv)
New Loadshape.1563529_30.18_-97.49_2019 npts= 35040 interval=0.25 mult = (file=../../pv-profiles/1563529_30.18_-97.49_2019.csv)
New Loadshape.1560317_30.42_-97.53_2019 npts= 35040 interval=0.25 mult = (file=../../pv-profiles/1560317_30.42_-97.53_2019.csv)
New Loadshape.1552058_30.34_-97.63_2019 npts= 35040 interval=0.25 mult = (file=../../pv-profiles/1552058_30.34_-97.63_2019.csv)
New Loadshape.1568220_30.26_-97.43_2019 npts= 35040 interval=0.25 mult = (file=../../pv-profiles/1568220_30.26_-97.43_2019.csv)
New Loadshape.1553724_30.28_-97.61_2019 npts= 35040 interval=0.25 mult = (file=../../pv-profiles/1553724_30.28_-97.61_2019.csv)
New Loadshape.1542084_30.26_-97.75_2019 npts= 35040 interval=0.25 mult = (file=../../pv-profiles/1542084_30.26_-97.75_2019.csv)
New Loadshape.1560321_30.34_-97.53_2019 npts= 35040 interval=0.25 mult = (file=../../pv-profiles/1560321_30.34_-97.53_2019.csv)
New Loadshape.1505549_30.28_-98.19_2019 npts= 35040 interval=0.25 mult = (file=../../pv-profiles/1505549_30.28_-98.19_2019.csv)
New Loadshape.1565105_30.20_-97.47_2019 npts= 35040 interval=0.25 mult = (file=../../pv-profiles/1565105_30.20_-97.47_2019.csv)
New Loadshape.1513831_30.26_-98.09_2019 npts= 35040 interval=0.25 mult = (file=../../pv-profiles/1513831_30.26_-98.09_2019.csv)
New Loadshape.1513832_30.24_-98.09_2019 npts= 35040 interval=0.25 mult = (file=../../pv-profiles/1513832_30.24_-98.09_2019.csv)
New Loadshape.1560330_30.16_-97.53_2019 npts= 35040 interval=0.25 mult = (file=../../pv-profiles/1560330_30.16_-97.53_2019.csv)
New Loadshape.1553716_30.44_-97.61_2019 npts= 35040 interval=0.25 mult = (file=../../pv-profiles/1553716_30.44_-97.61_2019.csv)
New Loadshape.1517146_30.28_-98.05_2019 npts= 35040 interval=0.25 mult = (file=../../pv-profiles/1517146_30.28_-98.05_2019.csv)
New Loadshape.1547075_30.22_-97.69_2019 npts= 35040 interval=0.25 mult = (file=../../pv-profiles/1547075_30.22_-97.69_2019.csv)
New Loadshape.1555385_30.32_-97.59_2019 npts= 35040 interval=0.25 mult = (file=../../pv-profiles/1555385_30.32_-97.59_2019.csv)
New Loadshape.1515490_30.22_-98.07_2019 npts= 35040 interval=0.25 mult = (file=../../pv-profiles/1515490_30.22_-98.07_2019.csv)
New Loadshape.1547073_30.26_-97.69_2019 npts= 35040 interval=0.25 mult = (file=../../pv-profiles/1547073_30.26_-97.69_2019.csv)
New Loadshape.1538760_30.22_-97.79_2019 npts= 35040 interval=0.25 mult = (file=../../pv-profiles/1538760_30.22_-97.79_2019.csv)
New Loadshape.1560328_30.20_-97.53_2019 npts= 35040 interval=0.25 mult = (file=../../pv-profiles/1560328_30.20_-97.53_2019.csv)
New Loadshape.1558699_30.32_-97.55_2019 npts= 35040 interval=0.25 mult = (file=../../pv-profiles/1558699_30.32_-97.55_2019.csv)
New Loadshape.1574386_30.22_-97.35_2019 npts= 35040 interval=0.25 mult = (file=../../pv-profiles/1574386_30.22_-97.35_2019.csv)
New Loadshape.1568219_30.28_-97.43_2019 npts= 35040 interval=0.25 mult = (file=../../pv-profiles/1568219_30.28_-97.43_2019.csv)
New Loadshape.1538759_30.24_-97.79_2019 npts= 35040 interval=0.25 mult = (file=../../pv-profiles/1538759_30.24_-97.79_2019.csv)
New Loadshape.1555381_30.40_-97.59_2019 npts= 35040 interval=0.25 mult = (file=../../pv-profiles/1555381_30.40_-97.59_2019.csv)
New Loadshape.1558695_30.40_-97.55_2019 npts= 35040 interval=0.25 mult = (file=../../pv-profiles/1558695_30.40_-97.55_2019.csv)
New Loadshape.1510517_30.26_-98.13_2019 npts= 35040 interval=0.25 mult = (file=../../pv-profiles/1510517_30.26_-98.13_2019.csv)
New Loadshape.1512174_30.26_-98.11_2019 npts= 35040 interval=0.25 mult = (file=../../pv-profiles/1512174_30.26_-98.11_2019.csv)
New Loadshape.1569765_30.26_-97.41_2019 npts= 35040 interval=0.25 mult = (file=../../pv-profiles/1569765_30.26_-97.41_2019.csv)
New Loadshape.1560329_30.18_-97.53_2019 npts= 35040 interval=0.25 mult = (file=../../pv-profiles/1560329_30.18_-97.53_2019.csv)
New Loadshape.1565106_30.18_-97.47_2019 npts= 35040 interval=0.25 mult = (file=../../pv-profiles/1565106_30.18_-97.47_2019.csv)
