New Load.load_p12ulv3331_1 conn=wye bus1=p12ulv3331.1 kV=0.12 Vminpu=0.8 Vmaxpu=1.2 model=1 kW=4.638495348080427 kvar=1.2897108277918248 Phases=1
New Load.load_p12ulv3331_2 conn=wye bus1=p12ulv3331.2 kV=0.12 Vminpu=0.8 Vmaxpu=1.2 model=1 kW=4.638495348080427 kvar=1.2897108277918248 Phases=1
New Load.load_p12ulv3332_1 conn=wye bus1=p12ulv3332.1 kV=0.12 Vminpu=0.8 Vmaxpu=1.2 model=1 kW=2.444725768387703 kvar=0.6902267912659802 Phases=1
New Load.load_p12ulv3332_2 conn=wye bus1=p12ulv3332.2 kV=0.12 Vminpu=0.8 Vmaxpu=1.2 model=1 kW=2.444725768387703 kvar=0.6902267912659802 Phases=1
New Load.load_p12ulv3336_1 conn=wye bus1=p12ulv3336.1 kV=0.12 Vminpu=0.8 Vmaxpu=1.2 model=1 kW=4.933146793098512 kvar=0.9686684100837105 Phases=1
New Load.load_p12ulv3336_2 conn=wye bus1=p12ulv3336.2 kV=0.12 Vminpu=0.8 Vmaxpu=1.2 model=1 kW=4.933146793098512 kvar=0.9686684100837105 Phases=1
New Load.load_p12ulv3342_1 conn=wye bus1=p12ulv3342.1 kV=0.12 Vminpu=0.8 Vmaxpu=1.2 model=1 kW=4.0515941160402 kvar=0.18100721021186303 Phases=1
New Load.load_p12ulv3342_2 conn=wye bus1=p12ulv3342.2 kV=0.12 Vminpu=0.8 Vmaxpu=1.2 model=1 kW=4.0515941160402 kvar=0.18100721021186303 Phases=1
New Load.load_p12ulv3344_1 conn=wye bus1=p12ulv3344.1 kV=0.12 Vminpu=0.8 Vmaxpu=1.2 model=1 kW=1.2129549589222124 kvar=0.2768906250641312 Phases=1
New Load.load_p12ulv3344_2 conn=wye bus1=p12ulv3344.2 kV=0.12 Vminpu=0.8 Vmaxpu=1.2 model=1 kW=1.2129549589222124 kvar=0.2768906250641312 Phases=1
New Load.load_p12ulv3346_1 conn=wye bus1=p12ulv3346.1 kV=0.12 Vminpu=0.8 Vmaxpu=1.2 model=1 kW=3.114920450878103 kvar=0.8250305459557633 Phases=1
New Load.load_p12ulv3346_2 conn=wye bus1=p12ulv3346.2 kV=0.12 Vminpu=0.8 Vmaxpu=1.2 model=1 kW=3.114920450878103 kvar=0.8250305459557633 Phases=1
New Load.load_p12ulv3347_1 conn=wye bus1=p12ulv3347.1 kV=0.12 Vminpu=0.8 Vmaxpu=1.2 model=1 kW=2.365256087534968 kvar=0.9406994095530364 Phases=1
New Load.load_p12ulv3347_2 conn=wye bus1=p12ulv3347.2 kV=0.12 Vminpu=0.8 Vmaxpu=1.2 model=1 kW=2.365256087534968 kvar=0.9406994095530364 Phases=1
New Load.load_p12ulv3348_1 conn=wye bus1=p12ulv3348.1 kV=0.12 Vminpu=0.8 Vmaxpu=1.2 model=1 kW=1.4663769608466568 kvar=0.5502546109327153 Phases=1
New Load.load_p12ulv3348_2 conn=wye bus1=p12ulv3348.2 kV=0.12 Vminpu=0.8 Vmaxpu=1.2 model=1 kW=1.4663769608466568 kvar=0.5502546109327153 Phases=1
New Load.load_p12ulv3350_1 conn=wye bus1=p12ulv3350.1 kV=0.12 Vminpu=0.8 Vmaxpu=1.2 model=1 kW=2.8928731343757987 kvar=1.0067082172753379 Phases=1
New Load.load_p12ulv3350_2 conn=wye bus1=p12ulv3350.2 kV=0.12 Vminpu=0.8 Vmaxpu=1.2 model=1 kW=2.8928731343757987 kvar=1.0067082172753379 Phases=1
New Load.load_p12ulv3355_1 conn=wye bus1=p12ulv3355.1 kV=0.12 Vminpu=0.8 Vmaxpu=1.2 model=1 kW=1.3656179673346736 kvar=0.3228496606319008 Phases=1
New Load.load_p12ulv3355_2 conn=wye bus1=p12ulv3355.2 kV=0.12 Vminpu=0.8 Vmaxpu=1.2 model=1 kW=1.3656179673346736 kvar=0.3228496606319008 Phases=1
New Load.load_p12ulv3357_1 conn=wye bus1=p12ulv3357.1 kV=0.12 Vminpu=0.8 Vmaxpu=1.2 model=1 kW=0.895854429151281 kvar=0.6750370195342454 Phases=1
New Load.load_p12ulv3357_2 conn=wye bus1=p12ulv3357.2 kV=0.12 Vminpu=0.8 Vmaxpu=1.2 model=1 kW=0.895854429151281 kvar=0.6750370195342454 Phases=1
New Load.load_p12ulv3363_1 conn=wye bus1=p12ulv3363.1 kV=0.12 Vminpu=0.8 Vmaxpu=1.2 model=1 kW=2.606959916668558 kvar=0.5550307077474157 Phases=1
New Load.load_p12ulv3363_2 conn=wye bus1=p12ulv3363.2 kV=0.12 Vminpu=0.8 Vmaxpu=1.2 model=1 kW=2.606959916668558 kvar=0.5550307077474157 Phases=1
New Load.load_p12ulv3364_1 conn=wye bus1=p12ulv3364.1 kV=0.12 Vminpu=0.8 Vmaxpu=1.2 model=1 kW=3.7539388165110568 kvar=0.8465948497897763 Phases=1
New Load.load_p12ulv3364_2 conn=wye bus1=p12ulv3364.2 kV=0.12 Vminpu=0.8 Vmaxpu=1.2 model=1 kW=3.7539388165110568 kvar=0.8465948497897763 Phases=1
New Load.load_p12ulv3367_1 conn=wye bus1=p12ulv3367.1 kV=0.12 Vminpu=0.8 Vmaxpu=1.2 model=1 kW=6.867626793239689 kvar=1.1686393939366313 Phases=1
New Load.load_p12ulv3367_2 conn=wye bus1=p12ulv3367.2 kV=0.12 Vminpu=0.8 Vmaxpu=1.2 model=1 kW=6.867626793239689 kvar=1.1686393939366313 Phases=1
New Load.load_p12ulv3378_1 conn=wye bus1=p12ulv3378.1 kV=0.12 Vminpu=0.8 Vmaxpu=1.2 model=1 kW=1.9029063430901945 kvar=0.888181875092591 Phases=1
New Load.load_p12ulv3378_2 conn=wye bus1=p12ulv3378.2 kV=0.12 Vminpu=0.8 Vmaxpu=1.2 model=1 kW=1.9029063430901945 kvar=0.888181875092591 Phases=1
New Load.load_p12ulv3379_1 conn=wye bus1=p12ulv3379.1 kV=0.12 Vminpu=0.8 Vmaxpu=1.2 model=1 kW=1.2247307924204822 kvar=0.2816114072864515 Phases=1
New Load.load_p12ulv3379_2 conn=wye bus1=p12ulv3379.2 kV=0.12 Vminpu=0.8 Vmaxpu=1.2 model=1 kW=1.2247307924204822 kvar=0.2816114072864515 Phases=1
New Load.load_p12ulv3382_1 conn=wye bus1=p12ulv3382.1 kV=0.12 Vminpu=0.8 Vmaxpu=1.2 model=1 kW=2.4991495076440033 kvar=0.3360328736424813 Phases=1
New Load.load_p12ulv3382_2 conn=wye bus1=p12ulv3382.2 kV=0.12 Vminpu=0.8 Vmaxpu=1.2 model=1 kW=2.4991495076440033 kvar=0.3360328736424813 Phases=1
New Load.load_p12ulv3386_1 conn=wye bus1=p12ulv3386.1 kV=0.12 Vminpu=0.8 Vmaxpu=1.2 model=1 kW=1.7228393963905424 kvar=0.8202092673396962 Phases=1
New Load.load_p12ulv3386_2 conn=wye bus1=p12ulv3386.2 kV=0.12 Vminpu=0.8 Vmaxpu=1.2 model=1 kW=1.7228393963905424 kvar=0.8202092673396962 Phases=1
New Load.load_p12ulv3389_1 conn=wye bus1=p12ulv3389.1 kV=0.12 Vminpu=0.8 Vmaxpu=1.2 model=1 kW=1.7228393963905424 kvar=0.8202092673396962 Phases=1
New Load.load_p12ulv3389_2 conn=wye bus1=p12ulv3389.2 kV=0.12 Vminpu=0.8 Vmaxpu=1.2 model=1 kW=1.7228393963905424 kvar=0.8202092673396962 Phases=1
New Load.load_p12ulv3390_1 conn=wye bus1=p12ulv3390.1 kV=0.12 Vminpu=0.8 Vmaxpu=1.2 model=1 kW=4.96241483711107 kvar=0.9187974513731435 Phases=1
New Load.load_p12ulv3390_2 conn=wye bus1=p12ulv3390.2 kV=0.12 Vminpu=0.8 Vmaxpu=1.2 model=1 kW=4.96241483711107 kvar=0.9187974513731435 Phases=1
New Load.load_p12ulv3391_1 conn=wye bus1=p12ulv3391.1 kV=0.12 Vminpu=0.8 Vmaxpu=1.2 model=1 kW=6.732288092027082 kvar=0.7308608679419898 Phases=1
New Load.load_p12ulv3391_2 conn=wye bus1=p12ulv3391.2 kV=0.12 Vminpu=0.8 Vmaxpu=1.2 model=1 kW=6.732288092027082 kvar=0.7308608679419898 Phases=1
New Load.load_p12ulv3394_1 conn=wye bus1=p12ulv3394.1 kV=0.12 Vminpu=0.8 Vmaxpu=1.2 model=1 kW=2.365256087534968 kvar=0.9406994095530364 Phases=1
New Load.load_p12ulv3394_2 conn=wye bus1=p12ulv3394.2 kV=0.12 Vminpu=0.8 Vmaxpu=1.2 model=1 kW=2.365256087534968 kvar=0.9406994095530364 Phases=1
New Load.load_p12ulv3395_1 conn=wye bus1=p12ulv3395.1 kV=0.12 Vminpu=0.8 Vmaxpu=1.2 model=1 kW=1.9021979484099127 kvar=0.628913703527884 Phases=1
New Load.load_p12ulv3395_2 conn=wye bus1=p12ulv3395.2 kV=0.12 Vminpu=0.8 Vmaxpu=1.2 model=1 kW=1.9021979484099127 kvar=0.628913703527884 Phases=1
New Load.load_p12ulv3397_1 conn=wye bus1=p12ulv3397.1 kV=0.12 Vminpu=0.8 Vmaxpu=1.2 model=1 kW=0.36392207032165785 kvar=0.13732873377844879 Phases=1
New Load.load_p12ulv3397_2 conn=wye bus1=p12ulv3397.2 kV=0.12 Vminpu=0.8 Vmaxpu=1.2 model=1 kW=0.36392207032165785 kvar=0.13732873377844879 Phases=1
New Load.load_p12ulv3399_1 conn=wye bus1=p12ulv3399.1 kV=0.12 Vminpu=0.8 Vmaxpu=1.2 model=1 kW=4.554319238824005 kvar=0.9121184547166219 Phases=1
New Load.load_p12ulv3399_2 conn=wye bus1=p12ulv3399.2 kV=0.12 Vminpu=0.8 Vmaxpu=1.2 model=1 kW=4.554319238824005 kvar=0.9121184547166219 Phases=1
New Load.load_p12ulv3401_1 conn=wye bus1=p12ulv3401.1 kV=0.12 Vminpu=0.8 Vmaxpu=1.2 model=1 kW=4.542113174533756 kvar=1.151257055509776 Phases=1
New Load.load_p12ulv3401_2 conn=wye bus1=p12ulv3401.2 kV=0.12 Vminpu=0.8 Vmaxpu=1.2 model=1 kW=4.542113174533756 kvar=1.151257055509776 Phases=1
New Load.load_p12ulv3406_1 conn=wye bus1=p12ulv3406.1 kV=0.12 Vminpu=0.8 Vmaxpu=1.2 model=1 kW=1.941898785419248 kvar=0.8498359578625553 Phases=1
New Load.load_p12ulv3406_2 conn=wye bus1=p12ulv3406.2 kV=0.12 Vminpu=0.8 Vmaxpu=1.2 model=1 kW=1.941898785419248 kvar=0.8498359578625553 Phases=1
New Load.load_p12ulv3407_1 conn=wye bus1=p12ulv3407.1 kV=0.12 Vminpu=0.8 Vmaxpu=1.2 model=1 kW=1.6786607767617978 kvar=0.04391342005821171 Phases=1
New Load.load_p12ulv3407_2 conn=wye bus1=p12ulv3407.2 kV=0.12 Vminpu=0.8 Vmaxpu=1.2 model=1 kW=1.6786607767617978 kvar=0.04391342005821171 Phases=1
New Load.load_p12ulv3408_1 conn=wye bus1=p12ulv3408.1 kV=0.12 Vminpu=0.8 Vmaxpu=1.2 model=1 kW=1.3711003956892736 kvar=0.4159919216187987 Phases=1
New Load.load_p12ulv3408_2 conn=wye bus1=p12ulv3408.2 kV=0.12 Vminpu=0.8 Vmaxpu=1.2 model=1 kW=1.3711003956892736 kvar=0.4159919216187987 Phases=1
New Load.load_p12ulv3409_1 conn=wye bus1=p12ulv3409.1 kV=0.12 Vminpu=0.8 Vmaxpu=1.2 model=1 kW=2.292799122473319 kvar=0.5385753507809203 Phases=1
New Load.load_p12ulv3409_2 conn=wye bus1=p12ulv3409.2 kV=0.12 Vminpu=0.8 Vmaxpu=1.2 model=1 kW=2.292799122473319 kvar=0.5385753507809203 Phases=1
New Load.load_p12ulv3422_1 conn=wye bus1=p12ulv3422.1 kV=0.12 Vminpu=0.8 Vmaxpu=1.2 model=1 kW=0.7150544099742788 kvar=0.32563033080643944 Phases=1
New Load.load_p12ulv3422_2 conn=wye bus1=p12ulv3422.2 kV=0.12 Vminpu=0.8 Vmaxpu=1.2 model=1 kW=0.7150544099742788 kvar=0.32563033080643944 Phases=1
New Load.load_p12ulv3428_1 conn=wye bus1=p12ulv3428.1 kV=0.12 Vminpu=0.8 Vmaxpu=1.2 model=1 kW=3.0094116984360424 kvar=0.686328546382752 Phases=1
New Load.load_p12ulv3428_2 conn=wye bus1=p12ulv3428.2 kV=0.12 Vminpu=0.8 Vmaxpu=1.2 model=1 kW=3.0094116984360424 kvar=0.686328546382752 Phases=1
New Load.load_p12ulv3440_1 conn=wye bus1=p12ulv3440.1 kV=0.12 Vminpu=0.8 Vmaxpu=1.2 model=1 kW=4.346123164782175 kvar=0.6166951440755365 Phases=1
New Load.load_p12ulv3440_2 conn=wye bus1=p12ulv3440.2 kV=0.12 Vminpu=0.8 Vmaxpu=1.2 model=1 kW=4.346123164782175 kvar=0.6166951440755365 Phases=1
New Load.load_p12ulv3442_1 conn=wye bus1=p12ulv3442.1 kV=0.12 Vminpu=0.8 Vmaxpu=1.2 model=1 kW=2.383812527298834 kvar=0.7249515140736078 Phases=1
New Load.load_p12ulv3442_2 conn=wye bus1=p12ulv3442.2 kV=0.12 Vminpu=0.8 Vmaxpu=1.2 model=1 kW=2.383812527298834 kvar=0.7249515140736078 Phases=1
New Load.load_p12ulv3444_1 conn=wye bus1=p12ulv3444.1 kV=0.12 Vminpu=0.8 Vmaxpu=1.2 model=1 kW=1.5315004956850187 kvar=0.5451120192288488 Phases=1
New Load.load_p12ulv3444_2 conn=wye bus1=p12ulv3444.2 kV=0.12 Vminpu=0.8 Vmaxpu=1.2 model=1 kW=1.5315004956850187 kvar=0.5451120192288488 Phases=1
New Load.load_p12ulv3448_1 conn=wye bus1=p12ulv3448.1 kV=0.12 Vminpu=0.8 Vmaxpu=1.2 model=1 kW=0.3314256724283603 kvar=0.13488573188186365 Phases=1
New Load.load_p12ulv3448_2 conn=wye bus1=p12ulv3448.2 kV=0.12 Vminpu=0.8 Vmaxpu=1.2 model=1 kW=0.3314256724283603 kvar=0.13488573188186365 Phases=1
New Load.load_p12ulv3451_1 conn=wye bus1=p12ulv3451.1 kV=0.12 Vminpu=0.8 Vmaxpu=1.2 model=1 kW=1.568282133205357 kvar=0.7861433482315765 Phases=1
New Load.load_p12ulv3451_2 conn=wye bus1=p12ulv3451.2 kV=0.12 Vminpu=0.8 Vmaxpu=1.2 model=1 kW=1.568282133205357 kvar=0.7861433482315765 Phases=1
New Load.load_p12ulv3456_1 conn=wye bus1=p12ulv3456.1 kV=0.12 Vminpu=0.8 Vmaxpu=1.2 model=1 kW=2.767146940376337 kvar=0.6454201133567596 Phases=1
New Load.load_p12ulv3456_2 conn=wye bus1=p12ulv3456.2 kV=0.12 Vminpu=0.8 Vmaxpu=1.2 model=1 kW=2.767146940376337 kvar=0.6454201133567596 Phases=1
New Load.load_p12ulv3457_1 conn=wye bus1=p12ulv3457.1 kV=0.12 Vminpu=0.8 Vmaxpu=1.2 model=1 kW=2.170178136799695 kvar=0.1180983864149425 Phases=1
New Load.load_p12ulv3457_2 conn=wye bus1=p12ulv3457.2 kV=0.12 Vminpu=0.8 Vmaxpu=1.2 model=1 kW=2.170178136799695 kvar=0.1180983864149425 Phases=1
New Load.load_p12ulv3458_1 conn=wye bus1=p12ulv3458.1 kV=0.12 Vminpu=0.8 Vmaxpu=1.2 model=1 kW=1.7579348494361045 kvar=0.7852381030918401 Phases=1
New Load.load_p12ulv3458_2 conn=wye bus1=p12ulv3458.2 kV=0.12 Vminpu=0.8 Vmaxpu=1.2 model=1 kW=1.7579348494361045 kvar=0.7852381030918401 Phases=1
New Load.load_p12ulv3460_1 conn=wye bus1=p12ulv3460.1 kV=0.12 Vminpu=0.8 Vmaxpu=1.2 model=1 kW=1.1171174732694102 kvar=0.5510818032436708 Phases=1
New Load.load_p12ulv3460_2 conn=wye bus1=p12ulv3460.2 kV=0.12 Vminpu=0.8 Vmaxpu=1.2 model=1 kW=1.1171174732694102 kvar=0.5510818032436708 Phases=1
New Load.load_p12ulv3463_1 conn=wye bus1=p12ulv3463.1 kV=0.12 Vminpu=0.8 Vmaxpu=1.2 model=1 kW=1.291842017688742 kvar=0.7877197601951852 Phases=1
New Load.load_p12ulv3463_2 conn=wye bus1=p12ulv3463.2 kV=0.12 Vminpu=0.8 Vmaxpu=1.2 model=1 kW=1.291842017688742 kvar=0.7877197601951852 Phases=1
New Load.load_p12ulv3467_1 conn=wye bus1=p12ulv3467.1 kV=0.12 Vminpu=0.8 Vmaxpu=1.2 model=1 kW=2.1603354468169496 kvar=0.7593773040340845 Phases=1
New Load.load_p12ulv3467_2 conn=wye bus1=p12ulv3467.2 kV=0.12 Vminpu=0.8 Vmaxpu=1.2 model=1 kW=2.1603354468169496 kvar=0.7593773040340845 Phases=1
New Load.load_p12ulv3474_1 conn=wye bus1=p12ulv3474.1 kV=0.12 Vminpu=0.8 Vmaxpu=1.2 model=1 kW=3.713483005652299 kvar=0.837039029111349 Phases=1
New Load.load_p12ulv3474_2 conn=wye bus1=p12ulv3474.2 kV=0.12 Vminpu=0.8 Vmaxpu=1.2 model=1 kW=3.713483005652299 kvar=0.837039029111349 Phases=1
New Load.load_p12ulv3479_1 conn=wye bus1=p12ulv3479.1 kV=0.12 Vminpu=0.8 Vmaxpu=1.2 model=1 kW=1.3903606764448309 kvar=0.35989325704970737 Phases=1
New Load.load_p12ulv3479_2 conn=wye bus1=p12ulv3479.2 kV=0.12 Vminpu=0.8 Vmaxpu=1.2 model=1 kW=1.3903606764448309 kvar=0.35989325704970737 Phases=1
New Load.load_p12ulv3480_1 conn=wye bus1=p12ulv3480.1 kV=0.12 Vminpu=0.8 Vmaxpu=1.2 model=1 kW=0.5500863393357383 kvar=0.3576036143879098 Phases=1
New Load.load_p12ulv3480_2 conn=wye bus1=p12ulv3480.2 kV=0.12 Vminpu=0.8 Vmaxpu=1.2 model=1 kW=0.5500863393357383 kvar=0.3576036143879098 Phases=1
New Load.load_p12ulv3485_1 conn=wye bus1=p12ulv3479.1 kV=0.12 Vminpu=0.8 Vmaxpu=1.2 model=1 kW=1.4663769608466568 kvar=0.5502546109327153 Phases=1
New Load.load_p12ulv3485_2 conn=wye bus1=p12ulv3479.2 kV=0.12 Vminpu=0.8 Vmaxpu=1.2 model=1 kW=1.4663769608466568 kvar=0.5502546109327153 Phases=1
New Load.load_p12ulv3487_1 conn=wye bus1=p12ulv3487.1 kV=0.12 Vminpu=0.8 Vmaxpu=1.2 model=1 kW=1.9199301686139512 kvar=0.6105974171279249 Phases=1
New Load.load_p12ulv3487_2 conn=wye bus1=p12ulv3487.2 kV=0.12 Vminpu=0.8 Vmaxpu=1.2 model=1 kW=1.9199301686139512 kvar=0.6105974171279249 Phases=1
New Load.load_p12ulv3490_1 conn=wye bus1=p12ulv3490.1 kV=0.12 Vminpu=0.8 Vmaxpu=1.2 model=1 kW=0.3919966449037446 kvar=0.25526897783955566 Phases=1
New Load.load_p12ulv3490_2 conn=wye bus1=p12ulv3490.2 kV=0.12 Vminpu=0.8 Vmaxpu=1.2 model=1 kW=0.3919966449037446 kvar=0.25526897783955566 Phases=1
New Load.load_p12ulv3502_1 conn=wye bus1=p12ulv3502.1 kV=0.12 Vminpu=0.8 Vmaxpu=1.2 model=1 kW=2.308477864741614 kvar=0.6307751830484037 Phases=1
New Load.load_p12ulv3502_2 conn=wye bus1=p12ulv3502.2 kV=0.12 Vminpu=0.8 Vmaxpu=1.2 model=1 kW=2.308477864741614 kvar=0.6307751830484037 Phases=1
New Load.load_p12ulv3504_1 conn=wye bus1=p12ulv3504.1 kV=0.12 Vminpu=0.8 Vmaxpu=1.2 model=1 kW=3.460395323670255 kvar=0.4585736120679708 Phases=1
New Load.load_p12ulv3504_2 conn=wye bus1=p12ulv3504.2 kV=0.12 Vminpu=0.8 Vmaxpu=1.2 model=1 kW=3.460395323670255 kvar=0.4585736120679708 Phases=1
New Load.load_p12ulv3506_1 conn=wye bus1=p12ulv3506.1 kV=0.12 Vminpu=0.8 Vmaxpu=1.2 model=1 kW=0.7150544099742788 kvar=0.32563033080643944 Phases=1
New Load.load_p12ulv3506_2 conn=wye bus1=p12ulv3506.2 kV=0.12 Vminpu=0.8 Vmaxpu=1.2 model=1 kW=0.7150544099742788 kvar=0.32563033080643944 Phases=1
New Load.load_p12ulv3510_1 conn=wye bus1=p12ulv3510.1 kV=0.12 Vminpu=0.8 Vmaxpu=1.2 model=1 kW=2.0226237890173833 kvar=0.014132802344601372 Phases=1
New Load.load_p12ulv3510_2 conn=wye bus1=p12ulv3510.2 kV=0.12 Vminpu=0.8 Vmaxpu=1.2 model=1 kW=2.0226237890173833 kvar=0.014132802344601372 Phases=1
New Load.load_p12ulv3511_1 conn=wye bus1=p12ulv3511.1 kV=0.12 Vminpu=0.8 Vmaxpu=1.2 model=1 kW=0.3086582709384027 kvar=0.12628327836733033 Phases=1
New Load.load_p12ulv3511_2 conn=wye bus1=p12ulv3511.2 kV=0.12 Vminpu=0.8 Vmaxpu=1.2 model=1 kW=0.3086582709384027 kvar=0.12628327836733033 Phases=1
New Load.load_p12ulv3516_1 conn=wye bus1=p12ulv3516.1 kV=0.12 Vminpu=0.8 Vmaxpu=1.2 model=1 kW=1.8668291909105112 kvar=0.7572719732007044 Phases=1
New Load.load_p12ulv3516_2 conn=wye bus1=p12ulv3516.2 kV=0.12 Vminpu=0.8 Vmaxpu=1.2 model=1 kW=1.8668291909105112 kvar=0.7572719732007044 Phases=1
New Load.load_p12ulv3519_1 conn=wye bus1=p12ulv3519.1 kV=0.12 Vminpu=0.8 Vmaxpu=1.2 model=1 kW=2.2062845147536065 kvar=0.4316765920783149 Phases=1
New Load.load_p12ulv3519_2 conn=wye bus1=p12ulv3519.2 kV=0.12 Vminpu=0.8 Vmaxpu=1.2 model=1 kW=2.2062845147536065 kvar=0.4316765920783149 Phases=1
New Load.load_p12ulv3521_1 conn=wye bus1=p12ulv3521.1 kV=0.12 Vminpu=0.8 Vmaxpu=1.2 model=1 kW=1.568282133205357 kvar=0.7861433482315765 Phases=1
New Load.load_p12ulv3521_2 conn=wye bus1=p12ulv3521.2 kV=0.12 Vminpu=0.8 Vmaxpu=1.2 model=1 kW=1.568282133205357 kvar=0.7861433482315765 Phases=1
New Load.load_p12ulv3523_1 conn=wye bus1=p12ulv3523.1 kV=0.12 Vminpu=0.8 Vmaxpu=1.2 model=1 kW=1.2050031130186265 kvar=0.2948161549366113 Phases=1
New Load.load_p12ulv3523_2 conn=wye bus1=p12ulv3523.2 kV=0.12 Vminpu=0.8 Vmaxpu=1.2 model=1 kW=1.2050031130186265 kvar=0.2948161549366113 Phases=1
New Load.load_p12ulv3526_1 conn=wye bus1=p12ulv3526.1 kV=0.12 Vminpu=0.8 Vmaxpu=1.2 model=1 kW=2.5807719345269415 kvar=0.1199553608817799 Phases=1
New Load.load_p12ulv3526_2 conn=wye bus1=p12ulv3526.2 kV=0.12 Vminpu=0.8 Vmaxpu=1.2 model=1 kW=2.5807719345269415 kvar=0.1199553608817799 Phases=1
New Load.load_p12ulv3535_1 conn=wye bus1=p12ulv3535.1 kV=0.12 Vminpu=0.8 Vmaxpu=1.2 model=1 kW=1.195601026095605 kvar=0.4379463760124337 Phases=1
New Load.load_p12ulv3535_2 conn=wye bus1=p12ulv3535.2 kV=0.12 Vminpu=0.8 Vmaxpu=1.2 model=1 kW=1.195601026095605 kvar=0.4379463760124337 Phases=1
New Load.load_p12ulv3539_1 conn=wye bus1=p12ulv3539.1 kV=0.12 Vminpu=0.8 Vmaxpu=1.2 model=1 kW=4.498981231799287 kvar=0.8881757893989677 Phases=1
New Load.load_p12ulv3539_2 conn=wye bus1=p12ulv3539.2 kV=0.12 Vminpu=0.8 Vmaxpu=1.2 model=1 kW=4.498981231799287 kvar=0.8881757893989677 Phases=1
New Load.load_p12ulv3547_1 conn=wye bus1=p12ulv3547.1 kV=0.12 Vminpu=0.8 Vmaxpu=1.2 model=1 kW=1.7307823920781797 kvar=0.5381584811307719 Phases=1
New Load.load_p12ulv3547_2 conn=wye bus1=p12ulv3547.2 kV=0.12 Vminpu=0.8 Vmaxpu=1.2 model=1 kW=1.7307823920781797 kvar=0.5381584811307719 Phases=1
New Load.load_p12ulv3548_1 conn=wye bus1=p12ulv3548.1 kV=0.12 Vminpu=0.8 Vmaxpu=1.2 model=1 kW=1.9785647527213963 kvar=0.6256686896119449 Phases=1
New Load.load_p12ulv3548_2 conn=wye bus1=p12ulv3548.2 kV=0.12 Vminpu=0.8 Vmaxpu=1.2 model=1 kW=1.9785647527213963 kvar=0.6256686896119449 Phases=1
New Load.load_p12ulv3549_1 conn=wye bus1=p12ulv3549.1 kV=0.12 Vminpu=0.8 Vmaxpu=1.2 model=1 kW=6.368017982384129 kvar=1.1770230134787087 Phases=1
New Load.load_p12ulv3549_2 conn=wye bus1=p12ulv3549.2 kV=0.12 Vminpu=0.8 Vmaxpu=1.2 model=1 kW=6.368017982384129 kvar=1.1770230134787087 Phases=1
New Load.load_p12ulv3550_1 conn=wye bus1=p12ulv3550.1 kV=0.12 Vminpu=0.8 Vmaxpu=1.2 model=1 kW=1.4950137537296666 kvar=0.31506625700854357 Phases=1
New Load.load_p12ulv3550_2 conn=wye bus1=p12ulv3550.2 kV=0.12 Vminpu=0.8 Vmaxpu=1.2 model=1 kW=1.4950137537296666 kvar=0.31506625700854357 Phases=1
New Load.load_p12ulv3553_1 conn=wye bus1=p12ulv3553.1 kV=0.12 Vminpu=0.8 Vmaxpu=1.2 model=1 kW=2.3464174292990054 kvar=0.8802812503815668 Phases=1
New Load.load_p12ulv3553_2 conn=wye bus1=p12ulv3553.2 kV=0.12 Vminpu=0.8 Vmaxpu=1.2 model=1 kW=2.3464174292990054 kvar=0.8802812503815668 Phases=1
New Load.load_p12ulv3554_1 conn=wye bus1=p12ulv3554.1 kV=0.12 Vminpu=0.8 Vmaxpu=1.2 model=1 kW=1.9021979484099127 kvar=0.628913703527884 Phases=1
New Load.load_p12ulv3554_2 conn=wye bus1=p12ulv3554.2 kV=0.12 Vminpu=0.8 Vmaxpu=1.2 model=1 kW=1.9021979484099127 kvar=0.628913703527884 Phases=1
New Load.load_p12ulv3555_1 conn=wye bus1=p12ulv3555.1 kV=0.12 Vminpu=0.8 Vmaxpu=1.2 model=1 kW=1.7349998714708184 kvar=0.5532693422377553 Phases=1
New Load.load_p12ulv3555_2 conn=wye bus1=p12ulv3555.2 kV=0.12 Vminpu=0.8 Vmaxpu=1.2 model=1 kW=1.7349998714708184 kvar=0.5532693422377553 Phases=1
New Load.load_p12ulv3556_1 conn=wye bus1=p12ulv3556.1 kV=0.12 Vminpu=0.8 Vmaxpu=1.2 model=1 kW=4.995426075816152 kvar=1.0586436998812154 Phases=1
New Load.load_p12ulv3556_2 conn=wye bus1=p12ulv3556.2 kV=0.12 Vminpu=0.8 Vmaxpu=1.2 model=1 kW=4.995426075816152 kvar=1.0586436998812154 Phases=1
New Load.load_p12ulv3557_1 conn=wye bus1=p12ulv3557.1 kV=0.12 Vminpu=0.8 Vmaxpu=1.2 model=1 kW=2.4622944887503224 kvar=0.10483650830237357 Phases=1
New Load.load_p12ulv3557_2 conn=wye bus1=p12ulv3557.2 kV=0.12 Vminpu=0.8 Vmaxpu=1.2 model=1 kW=2.4622944887503224 kvar=0.10483650830237357 Phases=1
New Load.load_p12ulv3566_1 conn=wye bus1=p12ulv3566.1 kV=0.12 Vminpu=0.8 Vmaxpu=1.2 model=1 kW=3.114920450878103 kvar=0.8250305459557633 Phases=1
New Load.load_p12ulv3566_2 conn=wye bus1=p12ulv3566.2 kV=0.12 Vminpu=0.8 Vmaxpu=1.2 model=1 kW=3.114920450878103 kvar=0.8250305459557633 Phases=1
New Load.load_p12ulv3567_1 conn=wye bus1=p12ulv3567.1 kV=0.12 Vminpu=0.8 Vmaxpu=1.2 model=1 kW=4.197495424713105 kvar=0.672348778807998 Phases=1
New Load.load_p12ulv3567_2 conn=wye bus1=p12ulv3567.2 kV=0.12 Vminpu=0.8 Vmaxpu=1.2 model=1 kW=4.197495424713105 kvar=0.672348778807998 Phases=1
New Load.load_p12ulv3568_1 conn=wye bus1=p12ulv3568.1 kV=0.12 Vminpu=0.8 Vmaxpu=1.2 model=1 kW=1.1402355518876541 kvar=0.37001930565758523 Phases=1
New Load.load_p12ulv3568_2 conn=wye bus1=p12ulv3568.2 kV=0.12 Vminpu=0.8 Vmaxpu=1.2 model=1 kW=1.1402355518876541 kvar=0.37001930565758523 Phases=1
New Load.load_p12ulv3570_1 conn=wye bus1=p12ulv3570.1 kV=0.12 Vminpu=0.8 Vmaxpu=1.2 model=1 kW=3.710803026150314 kvar=0.5366034361309832 Phases=1
New Load.load_p12ulv3570_2 conn=wye bus1=p12ulv3570.2 kV=0.12 Vminpu=0.8 Vmaxpu=1.2 model=1 kW=3.710803026150314 kvar=0.5366034361309832 Phases=1
New Load.load_p12ulv3573_1 conn=wye bus1=p12ulv3573.1 kV=0.12 Vminpu=0.8 Vmaxpu=1.2 model=1 kW=0.772705532239135 kvar=0.33568286747913667 Phases=1
New Load.load_p12ulv3573_2 conn=wye bus1=p12ulv3573.2 kV=0.12 Vminpu=0.8 Vmaxpu=1.2 model=1 kW=0.772705532239135 kvar=0.33568286747913667 Phases=1
New Load.load_p12ulv3574_1 conn=wye bus1=p12ulv3574.1 kV=0.12 Vminpu=0.8 Vmaxpu=1.2 model=1 kW=4.037961707989467 kvar=0.3691190849967326 Phases=1
New Load.load_p12ulv3574_2 conn=wye bus1=p12ulv3574.2 kV=0.12 Vminpu=0.8 Vmaxpu=1.2 model=1 kW=4.037961707989467 kvar=0.3691190849967326 Phases=1
New Load.load_p12ulv3582_1 conn=wye bus1=p12ulv3582.1 kV=0.12 Vminpu=0.8 Vmaxpu=1.2 model=1 kW=1.3656179673346736 kvar=0.3228496606319008 Phases=1
New Load.load_p12ulv3582_2 conn=wye bus1=p12ulv3582.2 kV=0.12 Vminpu=0.8 Vmaxpu=1.2 model=1 kW=1.3656179673346736 kvar=0.3228496606319008 Phases=1
New Load.load_p12ulv3584_1 conn=wye bus1=p12ulv3584.1 kV=0.12 Vminpu=0.8 Vmaxpu=1.2 model=1 kW=0.2437684685157903 kvar=0.09956111056866535 Phases=1
New Load.load_p12ulv3584_2 conn=wye bus1=p12ulv3584.2 kV=0.12 Vminpu=0.8 Vmaxpu=1.2 model=1 kW=0.2437684685157903 kvar=0.09956111056866535 Phases=1
New Load.load_p12ulv3585_1 conn=wye bus1=p12ulv3585.1 kV=0.12 Vminpu=0.8 Vmaxpu=1.2 model=1 kW=4.61693131501925 kvar=1.2262611043749607 Phases=1
New Load.load_p12ulv3585_2 conn=wye bus1=p12ulv3585.2 kV=0.12 Vminpu=0.8 Vmaxpu=1.2 model=1 kW=4.61693131501925 kvar=1.2262611043749607 Phases=1
New Load.load_p12ulv3589_1 conn=wye bus1=p12ulv3589.1 kV=0.12 Vminpu=0.8 Vmaxpu=1.2 model=1 kW=2.0953347895388337 kvar=0.8384825915430092 Phases=1
New Load.load_p12ulv3589_2 conn=wye bus1=p12ulv3589.2 kV=0.12 Vminpu=0.8 Vmaxpu=1.2 model=1 kW=2.0953347895388337 kvar=0.8384825915430092 Phases=1
New Load.load_p12ulv3592_1 conn=wye bus1=p12ulv3592.1 kV=0.12 Vminpu=0.8 Vmaxpu=1.2 model=1 kW=1.919115741074501 kvar=0.2850908988242494 Phases=1
New Load.load_p12ulv3592_2 conn=wye bus1=p12ulv3592.2 kV=0.12 Vminpu=0.8 Vmaxpu=1.2 model=1 kW=1.919115741074501 kvar=0.2850908988242494 Phases=1
New Load.load_p12ulv3595_1 conn=wye bus1=p12ulv3595.1 kV=0.12 Vminpu=0.8 Vmaxpu=1.2 model=1 kW=2.5288706987531056 kvar=0.545664022662065 Phases=1
New Load.load_p12ulv3595_2 conn=wye bus1=p12ulv3595.2 kV=0.12 Vminpu=0.8 Vmaxpu=1.2 model=1 kW=2.5288706987531056 kvar=0.545664022662065 Phases=1
New Load.load_p12ulv3596_1 conn=wye bus1=p12ulv3596.1 kV=0.12 Vminpu=0.8 Vmaxpu=1.2 model=1 kW=1.0862448810535612 kvar=0.4014767720080155 Phases=1
New Load.load_p12ulv3596_2 conn=wye bus1=p12ulv3596.2 kV=0.12 Vminpu=0.8 Vmaxpu=1.2 model=1 kW=1.0862448810535612 kvar=0.4014767720080155 Phases=1
New Load.load_p12ulv3598_1 conn=wye bus1=p12ulv3598.1 kV=0.12 Vminpu=0.8 Vmaxpu=1.2 model=1 kW=1.195601026095605 kvar=0.4379463760124337 Phases=1
New Load.load_p12ulv3598_2 conn=wye bus1=p12ulv3598.2 kV=0.12 Vminpu=0.8 Vmaxpu=1.2 model=1 kW=1.195601026095605 kvar=0.4379463760124337 Phases=1
New Load.load_p12ulv3600_1 conn=wye bus1=p12ulv3600.1 kV=0.12 Vminpu=0.8 Vmaxpu=1.2 model=1 kW=6.971725567398339 kvar=1.4854636601372835 Phases=1
New Load.load_p12ulv3600_2 conn=wye bus1=p12ulv3600.2 kV=0.12 Vminpu=0.8 Vmaxpu=1.2 model=1 kW=6.971725567398339 kvar=1.4854636601372835 Phases=1
New Load.load_p12ulv3601_1 conn=wye bus1=p12ulv3601.1 kV=0.12 Vminpu=0.8 Vmaxpu=1.2 model=1 kW=2.7961731487046246 kvar=1.0324526641097378 Phases=1
New Load.load_p12ulv3601_2 conn=wye bus1=p12ulv3601.2 kV=0.12 Vminpu=0.8 Vmaxpu=1.2 model=1 kW=2.7961731487046246 kvar=1.0324526641097378 Phases=1
New Load.load_p12ulv3602_1 conn=wye bus1=p12ulv3554.1 kV=0.12 Vminpu=0.8 Vmaxpu=1.2 model=1 kW=1.2388267384623686 kvar=0.5119131419290028 Phases=1
New Load.load_p12ulv3602_2 conn=wye bus1=p12ulv3554.2 kV=0.12 Vminpu=0.8 Vmaxpu=1.2 model=1 kW=1.2388267384623686 kvar=0.5119131419290028 Phases=1
New Load.load_p12ulv3604_1 conn=wye bus1=p12ulv3604.1 kV=0.12 Vminpu=0.8 Vmaxpu=1.2 model=1 kW=2.606959916668558 kvar=0.5550307077474157 Phases=1
New Load.load_p12ulv3604_2 conn=wye bus1=p12ulv3604.2 kV=0.12 Vminpu=0.8 Vmaxpu=1.2 model=1 kW=2.606959916668558 kvar=0.5550307077474157 Phases=1
New Load.load_p12ulv3606_1 conn=wye bus1=p12ulv3606.1 kV=0.12 Vminpu=0.8 Vmaxpu=1.2 model=1 kW=1.1816173171316173 kvar=0.6581224543523244 Phases=1
New Load.load_p12ulv3606_2 conn=wye bus1=p12ulv3606.2 kV=0.12 Vminpu=0.8 Vmaxpu=1.2 model=1 kW=1.1816173171316173 kvar=0.6581224543523244 Phases=1
New Load.load_p12ulv3607_1 conn=wye bus1=p12ulv3607.1 kV=0.12 Vminpu=0.8 Vmaxpu=1.2 model=1 kW=3.3058920020914284 kvar=0.6501096156270734 Phases=1
New Load.load_p12ulv3607_2 conn=wye bus1=p12ulv3607.2 kV=0.12 Vminpu=0.8 Vmaxpu=1.2 model=1 kW=3.3058920020914284 kvar=0.6501096156270734 Phases=1
New Load.load_p12ulv3610_1 conn=wye bus1=p12ulv3610.1 kV=0.12 Vminpu=0.8 Vmaxpu=1.2 model=1 kW=1.0862448810535612 kvar=0.4014767720080155 Phases=1
New Load.load_p12ulv3610_2 conn=wye bus1=p12ulv3610.2 kV=0.12 Vminpu=0.8 Vmaxpu=1.2 model=1 kW=1.0862448810535612 kvar=0.4014767720080155 Phases=1
New Load.load_p12ulv3611_1 conn=wye bus1=p12ulv3611.1 kV=0.12 Vminpu=0.8 Vmaxpu=1.2 model=1 kW=6.374347921468063 kvar=1.2968159089614357 Phases=1
New Load.load_p12ulv3611_2 conn=wye bus1=p12ulv3611.2 kV=0.12 Vminpu=0.8 Vmaxpu=1.2 model=1 kW=6.374347921468063 kvar=1.2968159089614357 Phases=1
New Load.load_p12ulv3613_1 conn=wye bus1=p12ulv3613.1 kV=0.12 Vminpu=0.8 Vmaxpu=1.2 model=1 kW=1.231885503624209 kvar=0.7620195116381803 Phases=1
New Load.load_p12ulv3613_2 conn=wye bus1=p12ulv3613.2 kV=0.12 Vminpu=0.8 Vmaxpu=1.2 model=1 kW=1.231885503624209 kvar=0.7620195116381803 Phases=1
New Load.load_p12ulv3615_1 conn=wye bus1=p12ulv3615.1 kV=0.12 Vminpu=0.8 Vmaxpu=1.2 model=1 kW=3.5406501175114133 kvar=1.216714657229654 Phases=1
New Load.load_p12ulv3615_2 conn=wye bus1=p12ulv3615.2 kV=0.12 Vminpu=0.8 Vmaxpu=1.2 model=1 kW=3.5406501175114133 kvar=1.216714657229654 Phases=1
New Load.load_p12ulv3617_1 conn=wye bus1=p12ulv3617.1 kV=0.12 Vminpu=0.8 Vmaxpu=1.2 model=1 kW=5.504029256847717 kvar=2.0876066670241746 Phases=1
New Load.load_p12ulv3617_2 conn=wye bus1=p12ulv3617.2 kV=0.12 Vminpu=0.8 Vmaxpu=1.2 model=1 kW=5.504029256847717 kvar=2.0876066670241746 Phases=1
New Load.load_p12ulv3627_1 conn=wye bus1=p12ulv3627.1 kV=0.12 Vminpu=0.8 Vmaxpu=1.2 model=1 kW=1.5365841293045384 kvar=0.535303100231416 Phases=1
New Load.load_p12ulv3627_2 conn=wye bus1=p12ulv3627.2 kV=0.12 Vminpu=0.8 Vmaxpu=1.2 model=1 kW=1.5365841293045384 kvar=0.535303100231416 Phases=1
New Load.load_p12ulv3628_1 conn=wye bus1=p12ulv3628.1 kV=0.12 Vminpu=0.8 Vmaxpu=1.2 model=1 kW=0.605318582042619 kvar=0.38786447308176675 Phases=1
New Load.load_p12ulv3628_2 conn=wye bus1=p12ulv3628.2 kV=0.12 Vminpu=0.8 Vmaxpu=1.2 model=1 kW=0.605318582042619 kvar=0.38786447308176675 Phases=1
New Load.load_p12ulv3629_1 conn=wye bus1=p12ulv3629.1 kV=0.12 Vminpu=0.8 Vmaxpu=1.2 model=1 kW=1.6235247805381197 kvar=0.5206515777483778 Phases=1
New Load.load_p12ulv3629_2 conn=wye bus1=p12ulv3629.2 kV=0.12 Vminpu=0.8 Vmaxpu=1.2 model=1 kW=1.6235247805381197 kvar=0.5206515777483778 Phases=1
New Load.load_p12ulv3630_1 conn=wye bus1=p12ulv3630.1 kV=0.12 Vminpu=0.8 Vmaxpu=1.2 model=1 kW=4.550894852621135 kvar=1.581561675901674 Phases=1
New Load.load_p12ulv3630_2 conn=wye bus1=p12ulv3630.2 kV=0.12 Vminpu=0.8 Vmaxpu=1.2 model=1 kW=4.550894852621135 kvar=1.581561675901674 Phases=1
New Load.load_p12ulv3631_1 conn=wye bus1=p12ulv3631.1 kV=0.12 Vminpu=0.8 Vmaxpu=1.2 model=1 kW=2.515651838005084 kvar=0.502504824260357 Phases=1
New Load.load_p12ulv3631_2 conn=wye bus1=p12ulv3631.2 kV=0.12 Vminpu=0.8 Vmaxpu=1.2 model=1 kW=2.515651838005084 kvar=0.502504824260357 Phases=1
New Load.load_p12ulv3632_1 conn=wye bus1=p12ulv3632.1 kV=0.12 Vminpu=0.8 Vmaxpu=1.2 model=1 kW=3.22312593006094 kvar=0.5765288639424796 Phases=1
New Load.load_p12ulv3632_2 conn=wye bus1=p12ulv3632.2 kV=0.12 Vminpu=0.8 Vmaxpu=1.2 model=1 kW=3.22312593006094 kvar=0.5765288639424796 Phases=1
New Load.load_p12ulv3633_1 conn=wye bus1=p12ulv3633.1 kV=0.12 Vminpu=0.8 Vmaxpu=1.2 model=1 kW=0.3422484648698486 kvar=0.14156340808924384 Phases=1
New Load.load_p12ulv3633_2 conn=wye bus1=p12ulv3633.2 kV=0.12 Vminpu=0.8 Vmaxpu=1.2 model=1 kW=0.3422484648698486 kvar=0.14156340808924384 Phases=1