New Loadshape.res_kw_3302_pu npts= 35040 interval=0.25 mult = (file=/projects/distcosts3/SMART-DS/v1.0/2018/SFO_xfmr/P12U/profiles/res_kw_3302_pu.csv) qmult = (file=/projects/distcosts3/SMART-DS/v1.0/2018/SFO_xfmr/P12U/profiles/res_kvar_3302_pu.csv)

New Loadshape.res_kw_4986_pu npts= 35040 interval=0.25 mult = (file=/projects/distcosts3/SMART-DS/v1.0/2018/SFO_xfmr/P12U/profiles/res_kw_4986_pu.csv) qmult = (file=/projects/distcosts3/SMART-DS/v1.0/2018/SFO_xfmr/P12U/profiles/res_kvar_4986_pu.csv)

New Loadshape.res_kw_11535_pu npts= 35040 interval=0.25 mult = (file=/projects/distcosts3/SMART-DS/v1.0/2018/SFO_xfmr/P12U/profiles/res_kw_11535_pu.csv) qmult = (file=/projects/distcosts3/SMART-DS/v1.0/2018/SFO_xfmr/P12U/profiles/res_kvar_11535_pu.csv)

New Loadshape.res_kw_10849_pu npts= 35040 interval=0.25 mult = (file=/projects/distcosts3/SMART-DS/v1.0/2018/SFO_xfmr/P12U/profiles/res_kw_10849_pu.csv) qmult = (file=/projects/distcosts3/SMART-DS/v1.0/2018/SFO_xfmr/P12U/profiles/res_kvar_10849_pu.csv)

New Loadshape.res_kw_1863_pu npts= 35040 interval=0.25 mult = (file=/projects/distcosts3/SMART-DS/v1.0/2018/SFO_xfmr/P12U/profiles/res_kw_1863_pu.csv) qmult = (file=/projects/distcosts3/SMART-DS/v1.0/2018/SFO_xfmr/P12U/profiles/res_kvar_1863_pu.csv)

New Loadshape.res_kw_7227_pu npts= 35040 interval=0.25 mult = (file=/projects/distcosts3/SMART-DS/v1.0/2018/SFO_xfmr/P12U/profiles/res_kw_7227_pu.csv) qmult = (file=/projects/distcosts3/SMART-DS/v1.0/2018/SFO_xfmr/P12U/profiles/res_kvar_7227_pu.csv)

New Loadshape.res_kw_678_pu npts= 35040 interval=0.25 mult = (file=/projects/distcosts3/SMART-DS/v1.0/2018/SFO_xfmr/P12U/profiles/res_kw_678_pu.csv) qmult = (file=/projects/distcosts3/SMART-DS/v1.0/2018/SFO_xfmr/P12U/profiles/res_kvar_678_pu.csv)

New Loadshape.res_kw_8338_pu npts= 35040 interval=0.25 mult = (file=/projects/distcosts3/SMART-DS/v1.0/2018/SFO_xfmr/P12U/profiles/res_kw_8338_pu.csv) qmult = (file=/projects/distcosts3/SMART-DS/v1.0/2018/SFO_xfmr/P12U/profiles/res_kvar_8338_pu.csv)

New Loadshape.res_kw_10457_pu npts= 35040 interval=0.25 mult = (file=/projects/distcosts3/SMART-DS/v1.0/2018/SFO_xfmr/P12U/profiles/res_kw_10457_pu.csv) qmult = (file=/projects/distcosts3/SMART-DS/v1.0/2018/SFO_xfmr/P12U/profiles/res_kvar_10457_pu.csv)

New Loadshape.res_kw_7590_pu npts= 35040 interval=0.25 mult = (file=/projects/distcosts3/SMART-DS/v1.0/2018/SFO_xfmr/P12U/profiles/res_kw_7590_pu.csv) qmult = (file=/projects/distcosts3/SMART-DS/v1.0/2018/SFO_xfmr/P12U/profiles/res_kvar_7590_pu.csv)

New Loadshape.res_kw_6870_pu npts= 35040 interval=0.25 mult = (file=/projects/distcosts3/SMART-DS/v1.0/2018/SFO_xfmr/P12U/profiles/res_kw_6870_pu.csv) qmult = (file=/projects/distcosts3/SMART-DS/v1.0/2018/SFO_xfmr/P12U/profiles/res_kvar_6870_pu.csv)

New Loadshape.res_kw_11149_pu npts= 35040 interval=0.25 mult = (file=/projects/distcosts3/SMART-DS/v1.0/2018/SFO_xfmr/P12U/profiles/res_kw_11149_pu.csv) qmult = (file=/projects/distcosts3/SMART-DS/v1.0/2018/SFO_xfmr/P12U/profiles/res_kvar_11149_pu.csv)

New Loadshape.res_kw_982_pu npts= 35040 interval=0.25 mult = (file=/projects/distcosts3/SMART-DS/v1.0/2018/SFO_xfmr/P12U/profiles/res_kw_982_pu.csv) qmult = (file=/projects/distcosts3/SMART-DS/v1.0/2018/SFO_xfmr/P12U/profiles/res_kvar_982_pu.csv)

New Loadshape.res_kw_4334_pu npts= 35040 interval=0.25 mult = (file=/projects/distcosts3/SMART-DS/v1.0/2018/SFO_xfmr/P12U/profiles/res_kw_4334_pu.csv) qmult = (file=/projects/distcosts3/SMART-DS/v1.0/2018/SFO_xfmr/P12U/profiles/res_kvar_4334_pu.csv)

New Loadshape.res_kw_10201_pu npts= 35040 interval=0.25 mult = (file=/projects/distcosts3/SMART-DS/v1.0/2018/SFO_xfmr/P12U/profiles/res_kw_10201_pu.csv) qmult = (file=/projects/distcosts3/SMART-DS/v1.0/2018/SFO_xfmr/P12U/profiles/res_kvar_10201_pu.csv)

New Loadshape.res_kw_379_pu npts= 35040 interval=0.25 mult = (file=/projects/distcosts3/SMART-DS/v1.0/2018/SFO_xfmr/P12U/profiles/res_kw_379_pu.csv) qmult = (file=/projects/distcosts3/SMART-DS/v1.0/2018/SFO_xfmr/P12U/profiles/res_kvar_379_pu.csv)

New Loadshape.res_kw_6122_pu npts= 35040 interval=0.25 mult = (file=/projects/distcosts3/SMART-DS/v1.0/2018/SFO_xfmr/P12U/profiles/res_kw_6122_pu.csv) qmult = (file=/projects/distcosts3/SMART-DS/v1.0/2018/SFO_xfmr/P12U/profiles/res_kvar_6122_pu.csv)

New Loadshape.res_kw_9999_pu npts= 35040 interval=0.25 mult = (file=/projects/distcosts3/SMART-DS/v1.0/2018/SFO_xfmr/P12U/profiles/res_kw_9999_pu.csv) qmult = (file=/projects/distcosts3/SMART-DS/v1.0/2018/SFO_xfmr/P12U/profiles/res_kvar_9999_pu.csv)

New Loadshape.res_kw_461_pu npts= 35040 interval=0.25 mult = (file=/projects/distcosts3/SMART-DS/v1.0/2018/SFO_xfmr/P12U/profiles/res_kw_461_pu.csv) qmult = (file=/projects/distcosts3/SMART-DS/v1.0/2018/SFO_xfmr/P12U/profiles/res_kvar_461_pu.csv)

New Loadshape.res_kw_6509_pu npts= 35040 interval=0.25 mult = (file=/projects/distcosts3/SMART-DS/v1.0/2018/SFO_xfmr/P12U/profiles/res_kw_6509_pu.csv) qmult = (file=/projects/distcosts3/SMART-DS/v1.0/2018/SFO_xfmr/P12U/profiles/res_kvar_6509_pu.csv)

New Loadshape.res_kw_11284_pu npts= 35040 interval=0.25 mult = (file=/projects/distcosts3/SMART-DS/v1.0/2018/SFO_xfmr/P12U/profiles/res_kw_11284_pu.csv) qmult = (file=/projects/distcosts3/SMART-DS/v1.0/2018/SFO_xfmr/P12U/profiles/res_kvar_11284_pu.csv)

New Loadshape.res_kw_11663_pu npts= 35040 interval=0.25 mult = (file=/projects/distcosts3/SMART-DS/v1.0/2018/SFO_xfmr/P12U/profiles/res_kw_11663_pu.csv) qmult = (file=/projects/distcosts3/SMART-DS/v1.0/2018/SFO_xfmr/P12U/profiles/res_kvar_11663_pu.csv)

New Loadshape.res_kw_705_pu npts= 35040 interval=0.25 mult = (file=/projects/distcosts3/SMART-DS/v1.0/2018/SFO_xfmr/P12U/profiles/res_kw_705_pu.csv) qmult = (file=/projects/distcosts3/SMART-DS/v1.0/2018/SFO_xfmr/P12U/profiles/res_kvar_705_pu.csv)

New Loadshape.res_kw_10014_pu npts= 35040 interval=0.25 mult = (file=/projects/distcosts3/SMART-DS/v1.0/2018/SFO_xfmr/P12U/profiles/res_kw_10014_pu.csv) qmult = (file=/projects/distcosts3/SMART-DS/v1.0/2018/SFO_xfmr/P12U/profiles/res_kvar_10014_pu.csv)

New Loadshape.res_kw_4290_pu npts= 35040 interval=0.25 mult = (file=/projects/distcosts3/SMART-DS/v1.0/2018/SFO_xfmr/P12U/profiles/res_kw_4290_pu.csv) qmult = (file=/projects/distcosts3/SMART-DS/v1.0/2018/SFO_xfmr/P12U/profiles/res_kvar_4290_pu.csv)

New Loadshape.res_kw_7613_pu npts= 35040 interval=0.25 mult = (file=/projects/distcosts3/SMART-DS/v1.0/2018/SFO_xfmr/P12U/profiles/res_kw_7613_pu.csv) qmult = (file=/projects/distcosts3/SMART-DS/v1.0/2018/SFO_xfmr/P12U/profiles/res_kvar_7613_pu.csv)

New Loadshape.res_kw_1753_pu npts= 35040 interval=0.25 mult = (file=/projects/distcosts3/SMART-DS/v1.0/2018/SFO_xfmr/P12U/profiles/res_kw_1753_pu.csv) qmult = (file=/projects/distcosts3/SMART-DS/v1.0/2018/SFO_xfmr/P12U/profiles/res_kvar_1753_pu.csv)

New Loadshape.res_kw_10556_pu npts= 35040 interval=0.25 mult = (file=/projects/distcosts3/SMART-DS/v1.0/2018/SFO_xfmr/P12U/profiles/res_kw_10556_pu.csv) qmult = (file=/projects/distcosts3/SMART-DS/v1.0/2018/SFO_xfmr/P12U/profiles/res_kvar_10556_pu.csv)

New Loadshape.res_kw_12297_pu npts= 35040 interval=0.25 mult = (file=/projects/distcosts3/SMART-DS/v1.0/2018/SFO_xfmr/P12U/profiles/res_kw_12297_pu.csv) qmult = (file=/projects/distcosts3/SMART-DS/v1.0/2018/SFO_xfmr/P12U/profiles/res_kvar_12297_pu.csv)

New Loadshape.res_kw_11737_pu npts= 35040 interval=0.25 mult = (file=/projects/distcosts3/SMART-DS/v1.0/2018/SFO_xfmr/P12U/profiles/res_kw_11737_pu.csv) qmult = (file=/projects/distcosts3/SMART-DS/v1.0/2018/SFO_xfmr/P12U/profiles/res_kvar_11737_pu.csv)

New Loadshape.res_kw_11790_pu npts= 35040 interval=0.25 mult = (file=/projects/distcosts3/SMART-DS/v1.0/2018/SFO_xfmr/P12U/profiles/res_kw_11790_pu.csv) qmult = (file=/projects/distcosts3/SMART-DS/v1.0/2018/SFO_xfmr/P12U/profiles/res_kvar_11790_pu.csv)

New Loadshape.res_kw_11433_pu npts= 35040 interval=0.25 mult = (file=/projects/distcosts3/SMART-DS/v1.0/2018/SFO_xfmr/P12U/profiles/res_kw_11433_pu.csv) qmult = (file=/projects/distcosts3/SMART-DS/v1.0/2018/SFO_xfmr/P12U/profiles/res_kvar_11433_pu.csv)

New Loadshape.res_kw_1845_pu npts= 35040 interval=0.25 mult = (file=/projects/distcosts3/SMART-DS/v1.0/2018/SFO_xfmr/P12U/profiles/res_kw_1845_pu.csv) qmult = (file=/projects/distcosts3/SMART-DS/v1.0/2018/SFO_xfmr/P12U/profiles/res_kvar_1845_pu.csv)

New Loadshape.res_kw_1568_pu npts= 35040 interval=0.25 mult = (file=/projects/distcosts3/SMART-DS/v1.0/2018/SFO_xfmr/P12U/profiles/res_kw_1568_pu.csv) qmult = (file=/projects/distcosts3/SMART-DS/v1.0/2018/SFO_xfmr/P12U/profiles/res_kvar_1568_pu.csv)

New Loadshape.res_kw_12562_pu npts= 35040 interval=0.25 mult = (file=/projects/distcosts3/SMART-DS/v1.0/2018/SFO_xfmr/P12U/profiles/res_kw_12562_pu.csv) qmult = (file=/projects/distcosts3/SMART-DS/v1.0/2018/SFO_xfmr/P12U/profiles/res_kvar_12562_pu.csv)

New Loadshape.res_kw_13165_pu npts= 35040 interval=0.25 mult = (file=/projects/distcosts3/SMART-DS/v1.0/2018/SFO_xfmr/P12U/profiles/res_kw_13165_pu.csv) qmult = (file=/projects/distcosts3/SMART-DS/v1.0/2018/SFO_xfmr/P12U/profiles/res_kvar_13165_pu.csv)

New Loadshape.res_kw_14265_pu npts= 35040 interval=0.25 mult = (file=/projects/distcosts3/SMART-DS/v1.0/2018/SFO_xfmr/P12U/profiles/res_kw_14265_pu.csv) qmult = (file=/projects/distcosts3/SMART-DS/v1.0/2018/SFO_xfmr/P12U/profiles/res_kvar_14265_pu.csv)

New Loadshape.res_kw_10446_pu npts= 35040 interval=0.25 mult = (file=/projects/distcosts3/SMART-DS/v1.0/2018/SFO_xfmr/P12U/profiles/res_kw_10446_pu.csv) qmult = (file=/projects/distcosts3/SMART-DS/v1.0/2018/SFO_xfmr/P12U/profiles/res_kvar_10446_pu.csv)

New Loadshape.res_kw_14158_pu npts= 35040 interval=0.25 mult = (file=/projects/distcosts3/SMART-DS/v1.0/2018/SFO_xfmr/P12U/profiles/res_kw_14158_pu.csv) qmult = (file=/projects/distcosts3/SMART-DS/v1.0/2018/SFO_xfmr/P12U/profiles/res_kvar_14158_pu.csv)

New Loadshape.res_kw_6884_pu npts= 35040 interval=0.25 mult = (file=/projects/distcosts3/SMART-DS/v1.0/2018/SFO_xfmr/P12U/profiles/res_kw_6884_pu.csv) qmult = (file=/projects/distcosts3/SMART-DS/v1.0/2018/SFO_xfmr/P12U/profiles/res_kvar_6884_pu.csv)

New Loadshape.res_kw_5110_pu npts= 35040 interval=0.25 mult = (file=/projects/distcosts3/SMART-DS/v1.0/2018/SFO_xfmr/P12U/profiles/res_kw_5110_pu.csv) qmult = (file=/projects/distcosts3/SMART-DS/v1.0/2018/SFO_xfmr/P12U/profiles/res_kvar_5110_pu.csv)

New Loadshape.res_kw_12740_pu npts= 35040 interval=0.25 mult = (file=/projects/distcosts3/SMART-DS/v1.0/2018/SFO_xfmr/P12U/profiles/res_kw_12740_pu.csv) qmult = (file=/projects/distcosts3/SMART-DS/v1.0/2018/SFO_xfmr/P12U/profiles/res_kvar_12740_pu.csv)

New Loadshape.res_kw_11630_pu npts= 35040 interval=0.25 mult = (file=/projects/distcosts3/SMART-DS/v1.0/2018/SFO_xfmr/P12U/profiles/res_kw_11630_pu.csv) qmult = (file=/projects/distcosts3/SMART-DS/v1.0/2018/SFO_xfmr/P12U/profiles/res_kvar_11630_pu.csv)

New Loadshape.res_kw_8723_pu npts= 35040 interval=0.25 mult = (file=/projects/distcosts3/SMART-DS/v1.0/2018/SFO_xfmr/P12U/profiles/res_kw_8723_pu.csv) qmult = (file=/projects/distcosts3/SMART-DS/v1.0/2018/SFO_xfmr/P12U/profiles/res_kvar_8723_pu.csv)

New Loadshape.res_kw_1463_pu npts= 35040 interval=0.25 mult = (file=/projects/distcosts3/SMART-DS/v1.0/2018/SFO_xfmr/P12U/profiles/res_kw_1463_pu.csv) qmult = (file=/projects/distcosts3/SMART-DS/v1.0/2018/SFO_xfmr/P12U/profiles/res_kvar_1463_pu.csv)

New Loadshape.res_kw_8573_pu npts= 35040 interval=0.25 mult = (file=/projects/distcosts3/SMART-DS/v1.0/2018/SFO_xfmr/P12U/profiles/res_kw_8573_pu.csv) qmult = (file=/projects/distcosts3/SMART-DS/v1.0/2018/SFO_xfmr/P12U/profiles/res_kvar_8573_pu.csv)

New Loadshape.res_kw_6553_pu npts= 35040 interval=0.25 mult = (file=/projects/distcosts3/SMART-DS/v1.0/2018/SFO_xfmr/P12U/profiles/res_kw_6553_pu.csv) qmult = (file=/projects/distcosts3/SMART-DS/v1.0/2018/SFO_xfmr/P12U/profiles/res_kvar_6553_pu.csv)

New Loadshape.res_kw_4310_pu npts= 35040 interval=0.25 mult = (file=/projects/distcosts3/SMART-DS/v1.0/2018/SFO_xfmr/P12U/profiles/res_kw_4310_pu.csv) qmult = (file=/projects/distcosts3/SMART-DS/v1.0/2018/SFO_xfmr/P12U/profiles/res_kvar_4310_pu.csv)

New Loadshape.res_kw_8260_pu npts= 35040 interval=0.25 mult = (file=/projects/distcosts3/SMART-DS/v1.0/2018/SFO_xfmr/P12U/profiles/res_kw_8260_pu.csv) qmult = (file=/projects/distcosts3/SMART-DS/v1.0/2018/SFO_xfmr/P12U/profiles/res_kvar_8260_pu.csv)

New Loadshape.res_kw_548_pu npts= 35040 interval=0.25 mult = (file=/projects/distcosts3/SMART-DS/v1.0/2018/SFO_xfmr/P12U/profiles/res_kw_548_pu.csv) qmult = (file=/projects/distcosts3/SMART-DS/v1.0/2018/SFO_xfmr/P12U/profiles/res_kvar_548_pu.csv)

New Loadshape.res_kw_5423_pu npts= 35040 interval=0.25 mult = (file=/projects/distcosts3/SMART-DS/v1.0/2018/SFO_xfmr/P12U/profiles/res_kw_5423_pu.csv) qmult = (file=/projects/distcosts3/SMART-DS/v1.0/2018/SFO_xfmr/P12U/profiles/res_kvar_5423_pu.csv)

New Loadshape.res_kw_3968_pu npts= 35040 interval=0.25 mult = (file=/projects/distcosts3/SMART-DS/v1.0/2018/SFO_xfmr/P12U/profiles/res_kw_3968_pu.csv) qmult = (file=/projects/distcosts3/SMART-DS/v1.0/2018/SFO_xfmr/P12U/profiles/res_kvar_3968_pu.csv)

New Loadshape.res_kw_1213_pu npts= 35040 interval=0.25 mult = (file=/projects/distcosts3/SMART-DS/v1.0/2018/SFO_xfmr/P12U/profiles/res_kw_1213_pu.csv) qmult = (file=/projects/distcosts3/SMART-DS/v1.0/2018/SFO_xfmr/P12U/profiles/res_kvar_1213_pu.csv)

New Loadshape.res_kw_5177_pu npts= 35040 interval=0.25 mult = (file=/projects/distcosts3/SMART-DS/v1.0/2018/SFO_xfmr/P12U/profiles/res_kw_5177_pu.csv) qmult = (file=/projects/distcosts3/SMART-DS/v1.0/2018/SFO_xfmr/P12U/profiles/res_kvar_5177_pu.csv)

New Loadshape.res_kw_11690_pu npts= 35040 interval=0.25 mult = (file=/projects/distcosts3/SMART-DS/v1.0/2018/SFO_xfmr/P12U/profiles/res_kw_11690_pu.csv) qmult = (file=/projects/distcosts3/SMART-DS/v1.0/2018/SFO_xfmr/P12U/profiles/res_kvar_11690_pu.csv)

New Loadshape.res_kw_11529_pu npts= 35040 interval=0.25 mult = (file=/projects/distcosts3/SMART-DS/v1.0/2018/SFO_xfmr/P12U/profiles/res_kw_11529_pu.csv) qmult = (file=/projects/distcosts3/SMART-DS/v1.0/2018/SFO_xfmr/P12U/profiles/res_kvar_11529_pu.csv)

New Loadshape.res_kw_1471_pu npts= 35040 interval=0.25 mult = (file=/projects/distcosts3/SMART-DS/v1.0/2018/SFO_xfmr/P12U/profiles/res_kw_1471_pu.csv) qmult = (file=/projects/distcosts3/SMART-DS/v1.0/2018/SFO_xfmr/P12U/profiles/res_kvar_1471_pu.csv)

New Loadshape.res_kw_14557_pu npts= 35040 interval=0.25 mult = (file=/projects/distcosts3/SMART-DS/v1.0/2018/SFO_xfmr/P12U/profiles/res_kw_14557_pu.csv) qmult = (file=/projects/distcosts3/SMART-DS/v1.0/2018/SFO_xfmr/P12U/profiles/res_kvar_14557_pu.csv)

New Loadshape.res_kw_8028_pu npts= 35040 interval=0.25 mult = (file=/projects/distcosts3/SMART-DS/v1.0/2018/SFO_xfmr/P12U/profiles/res_kw_8028_pu.csv) qmult = (file=/projects/distcosts3/SMART-DS/v1.0/2018/SFO_xfmr/P12U/profiles/res_kvar_8028_pu.csv)

New Loadshape.res_kw_13818_pu npts= 35040 interval=0.25 mult = (file=/projects/distcosts3/SMART-DS/v1.0/2018/SFO_xfmr/P12U/profiles/res_kw_13818_pu.csv) qmult = (file=/projects/distcosts3/SMART-DS/v1.0/2018/SFO_xfmr/P12U/profiles/res_kvar_13818_pu.csv)

New Loadshape.res_kw_14952_pu npts= 35040 interval=0.25 mult = (file=/projects/distcosts3/SMART-DS/v1.0/2018/SFO_xfmr/P12U/profiles/res_kw_14952_pu.csv) qmult = (file=/projects/distcosts3/SMART-DS/v1.0/2018/SFO_xfmr/P12U/profiles/res_kvar_14952_pu.csv)

New Loadshape.res_kw_12290_pu npts= 35040 interval=0.25 mult = (file=/projects/distcosts3/SMART-DS/v1.0/2018/SFO_xfmr/P12U/profiles/res_kw_12290_pu.csv) qmult = (file=/projects/distcosts3/SMART-DS/v1.0/2018/SFO_xfmr/P12U/profiles/res_kvar_12290_pu.csv)

New Loadshape.res_kw_9429_pu npts= 35040 interval=0.25 mult = (file=/projects/distcosts3/SMART-DS/v1.0/2018/SFO_xfmr/P12U/profiles/res_kw_9429_pu.csv) qmult = (file=/projects/distcosts3/SMART-DS/v1.0/2018/SFO_xfmr/P12U/profiles/res_kvar_9429_pu.csv)

New Loadshape.res_kw_6290_pu npts= 35040 interval=0.25 mult = (file=/projects/distcosts3/SMART-DS/v1.0/2018/SFO_xfmr/P12U/profiles/res_kw_6290_pu.csv) qmult = (file=/projects/distcosts3/SMART-DS/v1.0/2018/SFO_xfmr/P12U/profiles/res_kvar_6290_pu.csv)

New Loadshape.res_kw_370_pu npts= 35040 interval=0.25 mult = (file=/projects/distcosts3/SMART-DS/v1.0/2018/SFO_xfmr/P12U/profiles/res_kw_370_pu.csv) qmult = (file=/projects/distcosts3/SMART-DS/v1.0/2018/SFO_xfmr/P12U/profiles/res_kvar_370_pu.csv)

New Loadshape.res_kw_8669_pu npts= 35040 interval=0.25 mult = (file=/projects/distcosts3/SMART-DS/v1.0/2018/SFO_xfmr/P12U/profiles/res_kw_8669_pu.csv) qmult = (file=/projects/distcosts3/SMART-DS/v1.0/2018/SFO_xfmr/P12U/profiles/res_kvar_8669_pu.csv)

New Loadshape.res_kw_9630_pu npts= 35040 interval=0.25 mult = (file=/projects/distcosts3/SMART-DS/v1.0/2018/SFO_xfmr/P12U/profiles/res_kw_9630_pu.csv) qmult = (file=/projects/distcosts3/SMART-DS/v1.0/2018/SFO_xfmr/P12U/profiles/res_kvar_9630_pu.csv)

New Loadshape.res_kw_10197_pu npts= 35040 interval=0.25 mult = (file=/projects/distcosts3/SMART-DS/v1.0/2018/SFO_xfmr/P12U/profiles/res_kw_10197_pu.csv) qmult = (file=/projects/distcosts3/SMART-DS/v1.0/2018/SFO_xfmr/P12U/profiles/res_kvar_10197_pu.csv)

New Loadshape.res_kw_2978_pu npts= 35040 interval=0.25 mult = (file=/projects/distcosts3/SMART-DS/v1.0/2018/SFO_xfmr/P12U/profiles/res_kw_2978_pu.csv) qmult = (file=/projects/distcosts3/SMART-DS/v1.0/2018/SFO_xfmr/P12U/profiles/res_kvar_2978_pu.csv)

New Loadshape.res_kw_10222_pu npts= 35040 interval=0.25 mult = (file=/projects/distcosts3/SMART-DS/v1.0/2018/SFO_xfmr/P12U/profiles/res_kw_10222_pu.csv) qmult = (file=/projects/distcosts3/SMART-DS/v1.0/2018/SFO_xfmr/P12U/profiles/res_kvar_10222_pu.csv)

New Loadshape.res_kw_9876_pu npts= 35040 interval=0.25 mult = (file=/projects/distcosts3/SMART-DS/v1.0/2018/SFO_xfmr/P12U/profiles/res_kw_9876_pu.csv) qmult = (file=/projects/distcosts3/SMART-DS/v1.0/2018/SFO_xfmr/P12U/profiles/res_kvar_9876_pu.csv)

New Loadshape.res_kw_13043_pu npts= 35040 interval=0.25 mult = (file=/projects/distcosts3/SMART-DS/v1.0/2018/SFO_xfmr/P12U/profiles/res_kw_13043_pu.csv) qmult = (file=/projects/distcosts3/SMART-DS/v1.0/2018/SFO_xfmr/P12U/profiles/res_kvar_13043_pu.csv)

New Loadshape.res_kw_2453_pu npts= 35040 interval=0.25 mult = (file=/projects/distcosts3/SMART-DS/v1.0/2018/SFO_xfmr/P12U/profiles/res_kw_2453_pu.csv) qmult = (file=/projects/distcosts3/SMART-DS/v1.0/2018/SFO_xfmr/P12U/profiles/res_kvar_2453_pu.csv)

New Loadshape.res_kw_7232_pu npts= 35040 interval=0.25 mult = (file=/projects/distcosts3/SMART-DS/v1.0/2018/SFO_xfmr/P12U/profiles/res_kw_7232_pu.csv) qmult = (file=/projects/distcosts3/SMART-DS/v1.0/2018/SFO_xfmr/P12U/profiles/res_kvar_7232_pu.csv)

New Loadshape.res_kw_3201_pu npts= 35040 interval=0.25 mult = (file=/projects/distcosts3/SMART-DS/v1.0/2018/SFO_xfmr/P12U/profiles/res_kw_3201_pu.csv) qmult = (file=/projects/distcosts3/SMART-DS/v1.0/2018/SFO_xfmr/P12U/profiles/res_kvar_3201_pu.csv)

New Loadshape.res_kw_14308_pu npts= 35040 interval=0.25 mult = (file=/projects/distcosts3/SMART-DS/v1.0/2018/SFO_xfmr/P12U/profiles/res_kw_14308_pu.csv) qmult = (file=/projects/distcosts3/SMART-DS/v1.0/2018/SFO_xfmr/P12U/profiles/res_kvar_14308_pu.csv)

New Loadshape.res_kw_9306_pu npts= 35040 interval=0.25 mult = (file=/projects/distcosts3/SMART-DS/v1.0/2018/SFO_xfmr/P12U/profiles/res_kw_9306_pu.csv) qmult = (file=/projects/distcosts3/SMART-DS/v1.0/2018/SFO_xfmr/P12U/profiles/res_kvar_9306_pu.csv)

New Loadshape.res_kw_15189_pu npts= 35040 interval=0.25 mult = (file=/projects/distcosts3/SMART-DS/v1.0/2018/SFO_xfmr/P12U/profiles/res_kw_15189_pu.csv) qmult = (file=/projects/distcosts3/SMART-DS/v1.0/2018/SFO_xfmr/P12U/profiles/res_kvar_15189_pu.csv)

New Loadshape.res_kw_436_pu npts= 35040 interval=0.25 mult = (file=/projects/distcosts3/SMART-DS/v1.0/2018/SFO_xfmr/P12U/profiles/res_kw_436_pu.csv) qmult = (file=/projects/distcosts3/SMART-DS/v1.0/2018/SFO_xfmr/P12U/profiles/res_kvar_436_pu.csv)

New Loadshape.res_kw_14128_pu npts= 35040 interval=0.25 mult = (file=/projects/distcosts3/SMART-DS/v1.0/2018/SFO_xfmr/P12U/profiles/res_kw_14128_pu.csv) qmult = (file=/projects/distcosts3/SMART-DS/v1.0/2018/SFO_xfmr/P12U/profiles/res_kvar_14128_pu.csv)

New Loadshape.res_kw_6057_pu npts= 35040 interval=0.25 mult = (file=/projects/distcosts3/SMART-DS/v1.0/2018/SFO_xfmr/P12U/profiles/res_kw_6057_pu.csv) qmult = (file=/projects/distcosts3/SMART-DS/v1.0/2018/SFO_xfmr/P12U/profiles/res_kvar_6057_pu.csv)

New Loadshape.res_kw_4862_pu npts= 35040 interval=0.25 mult = (file=/projects/distcosts3/SMART-DS/v1.0/2018/SFO_xfmr/P12U/profiles/res_kw_4862_pu.csv) qmult = (file=/projects/distcosts3/SMART-DS/v1.0/2018/SFO_xfmr/P12U/profiles/res_kvar_4862_pu.csv)

New Loadshape.res_kw_3440_pu npts= 35040 interval=0.25 mult = (file=/projects/distcosts3/SMART-DS/v1.0/2018/SFO_xfmr/P12U/profiles/res_kw_3440_pu.csv) qmult = (file=/projects/distcosts3/SMART-DS/v1.0/2018/SFO_xfmr/P12U/profiles/res_kvar_3440_pu.csv)

New Loadshape.res_kw_2067_pu npts= 35040 interval=0.25 mult = (file=/projects/distcosts3/SMART-DS/v1.0/2018/SFO_xfmr/P12U/profiles/res_kw_2067_pu.csv) qmult = (file=/projects/distcosts3/SMART-DS/v1.0/2018/SFO_xfmr/P12U/profiles/res_kvar_2067_pu.csv)

New Loadshape.res_kw_9032_pu npts= 35040 interval=0.25 mult = (file=/projects/distcosts3/SMART-DS/v1.0/2018/SFO_xfmr/P12U/profiles/res_kw_9032_pu.csv) qmult = (file=/projects/distcosts3/SMART-DS/v1.0/2018/SFO_xfmr/P12U/profiles/res_kvar_9032_pu.csv)

New Loadshape.res_kw_2019_pu npts= 35040 interval=0.25 mult = (file=/projects/distcosts3/SMART-DS/v1.0/2018/SFO_xfmr/P12U/profiles/res_kw_2019_pu.csv) qmult = (file=/projects/distcosts3/SMART-DS/v1.0/2018/SFO_xfmr/P12U/profiles/res_kvar_2019_pu.csv)

New Loadshape.res_kw_1965_pu npts= 35040 interval=0.25 mult = (file=/projects/distcosts3/SMART-DS/v1.0/2018/SFO_xfmr/P12U/profiles/res_kw_1965_pu.csv) qmult = (file=/projects/distcosts3/SMART-DS/v1.0/2018/SFO_xfmr/P12U/profiles/res_kvar_1965_pu.csv)

New Loadshape.res_kw_6096_pu npts= 35040 interval=0.25 mult = (file=/projects/distcosts3/SMART-DS/v1.0/2018/SFO_xfmr/P12U/profiles/res_kw_6096_pu.csv) qmult = (file=/projects/distcosts3/SMART-DS/v1.0/2018/SFO_xfmr/P12U/profiles/res_kvar_6096_pu.csv)

New Loadshape.res_kw_9009_pu npts= 35040 interval=0.25 mult = (file=/projects/distcosts3/SMART-DS/v1.0/2018/SFO_xfmr/P12U/profiles/res_kw_9009_pu.csv) qmult = (file=/projects/distcosts3/SMART-DS/v1.0/2018/SFO_xfmr/P12U/profiles/res_kvar_9009_pu.csv)

New Loadshape.res_kw_1982_pu npts= 35040 interval=0.25 mult = (file=/projects/distcosts3/SMART-DS/v1.0/2018/SFO_xfmr/P12U/profiles/res_kw_1982_pu.csv) qmult = (file=/projects/distcosts3/SMART-DS/v1.0/2018/SFO_xfmr/P12U/profiles/res_kvar_1982_pu.csv)

New Loadshape.res_kw_10057_pu npts= 35040 interval=0.25 mult = (file=/projects/distcosts3/SMART-DS/v1.0/2018/SFO_xfmr/P12U/profiles/res_kw_10057_pu.csv) qmult = (file=/projects/distcosts3/SMART-DS/v1.0/2018/SFO_xfmr/P12U/profiles/res_kvar_10057_pu.csv)

New Loadshape.res_kw_13242_pu npts= 35040 interval=0.25 mult = (file=/projects/distcosts3/SMART-DS/v1.0/2018/SFO_xfmr/P12U/profiles/res_kw_13242_pu.csv) qmult = (file=/projects/distcosts3/SMART-DS/v1.0/2018/SFO_xfmr/P12U/profiles/res_kvar_13242_pu.csv)

New Loadshape.res_kw_4541_pu npts= 35040 interval=0.25 mult = (file=/projects/distcosts3/SMART-DS/v1.0/2018/SFO_xfmr/P12U/profiles/res_kw_4541_pu.csv) qmult = (file=/projects/distcosts3/SMART-DS/v1.0/2018/SFO_xfmr/P12U/profiles/res_kvar_4541_pu.csv)

New Loadshape.res_kw_14108_pu npts= 35040 interval=0.25 mult = (file=/projects/distcosts3/SMART-DS/v1.0/2018/SFO_xfmr/P12U/profiles/res_kw_14108_pu.csv) qmult = (file=/projects/distcosts3/SMART-DS/v1.0/2018/SFO_xfmr/P12U/profiles/res_kvar_14108_pu.csv)

New Loadshape.res_kw_11684_pu npts= 35040 interval=0.25 mult = (file=/projects/distcosts3/SMART-DS/v1.0/2018/SFO_xfmr/P12U/profiles/res_kw_11684_pu.csv) qmult = (file=/projects/distcosts3/SMART-DS/v1.0/2018/SFO_xfmr/P12U/profiles/res_kvar_11684_pu.csv)

New Loadshape.res_kw_7506_pu npts= 35040 interval=0.25 mult = (file=/projects/distcosts3/SMART-DS/v1.0/2018/SFO_xfmr/P12U/profiles/res_kw_7506_pu.csv) qmult = (file=/projects/distcosts3/SMART-DS/v1.0/2018/SFO_xfmr/P12U/profiles/res_kvar_7506_pu.csv)

New Loadshape.res_kw_2944_pu npts= 35040 interval=0.25 mult = (file=/projects/distcosts3/SMART-DS/v1.0/2018/SFO_xfmr/P12U/profiles/res_kw_2944_pu.csv) qmult = (file=/projects/distcosts3/SMART-DS/v1.0/2018/SFO_xfmr/P12U/profiles/res_kvar_2944_pu.csv)

New Loadshape.res_kw_3803_pu npts= 35040 interval=0.25 mult = (file=/projects/distcosts3/SMART-DS/v1.0/2018/SFO_xfmr/P12U/profiles/res_kw_3803_pu.csv) qmult = (file=/projects/distcosts3/SMART-DS/v1.0/2018/SFO_xfmr/P12U/profiles/res_kvar_3803_pu.csv)

New Loadshape.res_kw_1130_pu npts= 35040 interval=0.25 mult = (file=/projects/distcosts3/SMART-DS/v1.0/2018/SFO_xfmr/P12U/profiles/res_kw_1130_pu.csv) qmult = (file=/projects/distcosts3/SMART-DS/v1.0/2018/SFO_xfmr/P12U/profiles/res_kvar_1130_pu.csv)

New Loadshape.res_kw_9969_pu npts= 35040 interval=0.25 mult = (file=/projects/distcosts3/SMART-DS/v1.0/2018/SFO_xfmr/P12U/profiles/res_kw_9969_pu.csv) qmult = (file=/projects/distcosts3/SMART-DS/v1.0/2018/SFO_xfmr/P12U/profiles/res_kvar_9969_pu.csv)

New Loadshape.res_kw_456_pu npts= 35040 interval=0.25 mult = (file=/projects/distcosts3/SMART-DS/v1.0/2018/SFO_xfmr/P12U/profiles/res_kw_456_pu.csv) qmult = (file=/projects/distcosts3/SMART-DS/v1.0/2018/SFO_xfmr/P12U/profiles/res_kvar_456_pu.csv)

New Loadshape.res_kw_193_pu npts= 35040 interval=0.25 mult = (file=/projects/distcosts3/SMART-DS/v1.0/2018/SFO_xfmr/P12U/profiles/res_kw_193_pu.csv) qmult = (file=/projects/distcosts3/SMART-DS/v1.0/2018/SFO_xfmr/P12U/profiles/res_kvar_193_pu.csv)

New Loadshape.res_kw_7122_pu npts= 35040 interval=0.25 mult = (file=/projects/distcosts3/SMART-DS/v1.0/2018/SFO_xfmr/P12U/profiles/res_kw_7122_pu.csv) qmult = (file=/projects/distcosts3/SMART-DS/v1.0/2018/SFO_xfmr/P12U/profiles/res_kvar_7122_pu.csv)

New Loadshape.res_kw_14017_pu npts= 35040 interval=0.25 mult = (file=/projects/distcosts3/SMART-DS/v1.0/2018/SFO_xfmr/P12U/profiles/res_kw_14017_pu.csv) qmult = (file=/projects/distcosts3/SMART-DS/v1.0/2018/SFO_xfmr/P12U/profiles/res_kvar_14017_pu.csv)

New Loadshape.res_kw_7686_pu npts= 35040 interval=0.25 mult = (file=/projects/distcosts3/SMART-DS/v1.0/2018/SFO_xfmr/P12U/profiles/res_kw_7686_pu.csv) qmult = (file=/projects/distcosts3/SMART-DS/v1.0/2018/SFO_xfmr/P12U/profiles/res_kvar_7686_pu.csv)

New Loadshape.res_kw_7451_pu npts= 35040 interval=0.25 mult = (file=/projects/distcosts3/SMART-DS/v1.0/2018/SFO_xfmr/P12U/profiles/res_kw_7451_pu.csv) qmult = (file=/projects/distcosts3/SMART-DS/v1.0/2018/SFO_xfmr/P12U/profiles/res_kvar_7451_pu.csv)

New Loadshape.res_kw_9579_pu npts= 35040 interval=0.25 mult = (file=/projects/distcosts3/SMART-DS/v1.0/2018/SFO_xfmr/P12U/profiles/res_kw_9579_pu.csv) qmult = (file=/projects/distcosts3/SMART-DS/v1.0/2018/SFO_xfmr/P12U/profiles/res_kvar_9579_pu.csv)

New Loadshape.res_kw_1730_pu npts= 35040 interval=0.25 mult = (file=/projects/distcosts3/SMART-DS/v1.0/2018/SFO_xfmr/P12U/profiles/res_kw_1730_pu.csv) qmult = (file=/projects/distcosts3/SMART-DS/v1.0/2018/SFO_xfmr/P12U/profiles/res_kvar_1730_pu.csv)

New Loadshape.res_kw_14388_pu npts= 35040 interval=0.25 mult = (file=/projects/distcosts3/SMART-DS/v1.0/2018/SFO_xfmr/P12U/profiles/res_kw_14388_pu.csv) qmult = (file=/projects/distcosts3/SMART-DS/v1.0/2018/SFO_xfmr/P12U/profiles/res_kvar_14388_pu.csv)

New Loadshape.res_kw_11587_pu npts= 35040 interval=0.25 mult = (file=/projects/distcosts3/SMART-DS/v1.0/2018/SFO_xfmr/P12U/profiles/res_kw_11587_pu.csv) qmult = (file=/projects/distcosts3/SMART-DS/v1.0/2018/SFO_xfmr/P12U/profiles/res_kvar_11587_pu.csv)

New Loadshape.res_kw_588_pu npts= 35040 interval=0.25 mult = (file=/projects/distcosts3/SMART-DS/v1.0/2018/SFO_xfmr/P12U/profiles/res_kw_588_pu.csv) qmult = (file=/projects/distcosts3/SMART-DS/v1.0/2018/SFO_xfmr/P12U/profiles/res_kvar_588_pu.csv)

New Loadshape.res_kw_13148_pu npts= 35040 interval=0.25 mult = (file=/projects/distcosts3/SMART-DS/v1.0/2018/SFO_xfmr/P12U/profiles/res_kw_13148_pu.csv) qmult = (file=/projects/distcosts3/SMART-DS/v1.0/2018/SFO_xfmr/P12U/profiles/res_kvar_13148_pu.csv)

New Loadshape.res_kw_13911_pu npts= 35040 interval=0.25 mult = (file=/projects/distcosts3/SMART-DS/v1.0/2018/SFO_xfmr/P12U/profiles/res_kw_13911_pu.csv) qmult = (file=/projects/distcosts3/SMART-DS/v1.0/2018/SFO_xfmr/P12U/profiles/res_kvar_13911_pu.csv)

New Loadshape.res_kw_6337_pu npts= 35040 interval=0.25 mult = (file=/projects/distcosts3/SMART-DS/v1.0/2018/SFO_xfmr/P12U/profiles/res_kw_6337_pu.csv) qmult = (file=/projects/distcosts3/SMART-DS/v1.0/2018/SFO_xfmr/P12U/profiles/res_kvar_6337_pu.csv)

New Loadshape.res_kw_13200_pu npts= 35040 interval=0.25 mult = (file=/projects/distcosts3/SMART-DS/v1.0/2018/SFO_xfmr/P12U/profiles/res_kw_13200_pu.csv) qmult = (file=/projects/distcosts3/SMART-DS/v1.0/2018/SFO_xfmr/P12U/profiles/res_kvar_13200_pu.csv)

New Loadshape.res_kw_11164_pu npts= 35040 interval=0.25 mult = (file=/projects/distcosts3/SMART-DS/v1.0/2018/SFO_xfmr/P12U/profiles/res_kw_11164_pu.csv) qmult = (file=/projects/distcosts3/SMART-DS/v1.0/2018/SFO_xfmr/P12U/profiles/res_kvar_11164_pu.csv)

New Loadshape.res_kw_14353_pu npts= 35040 interval=0.25 mult = (file=/projects/distcosts3/SMART-DS/v1.0/2018/SFO_xfmr/P12U/profiles/res_kw_14353_pu.csv) qmult = (file=/projects/distcosts3/SMART-DS/v1.0/2018/SFO_xfmr/P12U/profiles/res_kvar_14353_pu.csv)

New Loadshape.res_kw_6160_pu npts= 35040 interval=0.25 mult = (file=/projects/distcosts3/SMART-DS/v1.0/2018/SFO_xfmr/P12U/profiles/res_kw_6160_pu.csv) qmult = (file=/projects/distcosts3/SMART-DS/v1.0/2018/SFO_xfmr/P12U/profiles/res_kvar_6160_pu.csv)

New Loadshape.res_kw_535_pu npts= 35040 interval=0.25 mult = (file=/projects/distcosts3/SMART-DS/v1.0/2018/SFO_xfmr/P12U/profiles/res_kw_535_pu.csv) qmult = (file=/projects/distcosts3/SMART-DS/v1.0/2018/SFO_xfmr/P12U/profiles/res_kvar_535_pu.csv)
