New Load.load_p1rlv10450_1 conn=wye bus1=p1rlv10450.1 kV=0.12 Vminpu=0.8 Vmaxpu=1.2 model=1 kW=1.7675749799903273 kvar=0.6204429178040327 Phases=1
New Load.load_p1rlv10450_2 conn=wye bus1=p1rlv10450.2 kV=0.12 Vminpu=0.8 Vmaxpu=1.2 model=1 kW=1.7675749799903273 kvar=0.6204429178040327 Phases=1
New Load.load_p1rlv10451_1 conn=wye bus1=p1rlv10451.1 kV=0.12 Vminpu=0.8 Vmaxpu=1.2 model=1 kW=5.569433532353901 kvar=0.07828940019258053 Phases=1
New Load.load_p1rlv10451_2 conn=wye bus1=p1rlv10451.2 kV=0.12 Vminpu=0.8 Vmaxpu=1.2 model=1 kW=5.569433532353901 kvar=0.07828940019258053 Phases=1
New Load.load_p1rlv10455_1 conn=wye bus1=p1rlv10455.1 kV=0.12 Vminpu=0.8 Vmaxpu=1.2 model=1 kW=5.999629309717645 kvar=0.4903107651984032 Phases=1
New Load.load_p1rlv10455_2 conn=wye bus1=p1rlv10455.2 kV=0.12 Vminpu=0.8 Vmaxpu=1.2 model=1 kW=5.999629309717645 kvar=0.4903107651984032 Phases=1
New Load.load_p1rlv10463_1 conn=wye bus1=p1rlv10463.1 kV=0.12 Vminpu=0.8 Vmaxpu=1.2 model=1 kW=5.6513633845246565 kvar=1.2660728679082136 Phases=1
New Load.load_p1rlv10463_2 conn=wye bus1=p1rlv10463.2 kV=0.12 Vminpu=0.8 Vmaxpu=1.2 model=1 kW=5.6513633845246565 kvar=1.2660728679082136 Phases=1
New Load.load_p1rlv10466_1 conn=wye bus1=p1rlv10466.1 kV=0.12 Vminpu=0.8 Vmaxpu=1.2 model=1 kW=2.3439175585507637 kvar=0.8866404836608991 Phases=1
New Load.load_p1rlv10466_2 conn=wye bus1=p1rlv10466.2 kV=0.12 Vminpu=0.8 Vmaxpu=1.2 model=1 kW=2.3439175585507637 kvar=0.8866404836608991 Phases=1
New Load.load_p1rlv10493_1 conn=wye bus1=p1rlv10493.1 kV=0.12 Vminpu=0.8 Vmaxpu=1.2 model=1 kW=2.292799122473319 kvar=0.5385753507809203 Phases=1
New Load.load_p1rlv10493_2 conn=wye bus1=p1rlv10493.2 kV=0.12 Vminpu=0.8 Vmaxpu=1.2 model=1 kW=2.292799122473319 kvar=0.5385753507809203 Phases=1
New Load.load_p1rlv10655_1 conn=wye bus1=p1rlv10655.1 kV=0.12 Vminpu=0.8 Vmaxpu=1.2 model=1 kW=3.737986692242784 kvar=0.8906640815201406 Phases=1
New Load.load_p1rlv10655_2 conn=wye bus1=p1rlv10655.2 kV=0.12 Vminpu=0.8 Vmaxpu=1.2 model=1 kW=3.737986692242784 kvar=0.8906640815201406 Phases=1
New Load.load_p1rlv10696_1 conn=wye bus1=p1rlv10696.1 kV=0.12 Vminpu=0.8 Vmaxpu=1.2 model=1 kW=1.5670847441713207 kvar=0.5540004468841006 Phases=1
New Load.load_p1rlv10696_2 conn=wye bus1=p1rlv10696.2 kV=0.12 Vminpu=0.8 Vmaxpu=1.2 model=1 kW=1.5670847441713207 kvar=0.5540004468841006 Phases=1
New Load.load_p1rlv10715_1 conn=wye bus1=p1rlv10715.1 kV=0.12 Vminpu=0.8 Vmaxpu=1.2 model=1 kW=1.344029820897165 kvar=0.5082087898616895 Phases=1
New Load.load_p1rlv10715_2 conn=wye bus1=p1rlv10715.2 kV=0.12 Vminpu=0.8 Vmaxpu=1.2 model=1 kW=1.344029820897165 kvar=0.5082087898616895 Phases=1
New Load.load_p1rlv10755_1 conn=wye bus1=p1rlv10755.1 kV=0.12 Vminpu=0.8 Vmaxpu=1.2 model=1 kW=5.2005516092690005 kvar=1.29985457921054 Phases=1
New Load.load_p1rlv10755_2 conn=wye bus1=p1rlv10755.2 kV=0.12 Vminpu=0.8 Vmaxpu=1.2 model=1 kW=5.2005516092690005 kvar=1.29985457921054 Phases=1
New Load.load_p1rlv10881_1 conn=wye bus1=p1rlv10881.1 kV=0.12 Vminpu=0.8 Vmaxpu=1.2 model=1 kW=1.1024311883264026 kvar=0.3929988371277374 Phases=1
New Load.load_p1rlv10881_2 conn=wye bus1=p1rlv10881.2 kV=0.12 Vminpu=0.8 Vmaxpu=1.2 model=1 kW=1.1024311883264026 kvar=0.3929988371277374 Phases=1
New Load.load_p1rlv10901_1 conn=wye bus1=p1rlv10901.1 kV=0.12 Vminpu=0.8 Vmaxpu=1.2 model=1 kW=3.931702677734481 kvar=1.168190857328403 Phases=1
New Load.load_p1rlv10901_2 conn=wye bus1=p1rlv10901.2 kV=0.12 Vminpu=0.8 Vmaxpu=1.2 model=1 kW=3.931702677734481 kvar=1.168190857328403 Phases=1
New Load.load_p1rlv11092_1 conn=wye bus1=p1rlv11092.1 kV=0.12 Vminpu=0.8 Vmaxpu=1.2 model=1 kW=0.7984560402451683 kvar=0.17786587794089623 Phases=1
New Load.load_p1rlv11092_2 conn=wye bus1=p1rlv11092.2 kV=0.12 Vminpu=0.8 Vmaxpu=1.2 model=1 kW=0.7984560402451683 kvar=0.17786587794089623 Phases=1
New Load.load_p1rlv11603_1 conn=wye bus1=p1rlv11603.1 kV=0.12 Vminpu=0.8 Vmaxpu=1.2 model=1 kW=1.4148353854888571 kvar=0.6393114443430603 Phases=1
New Load.load_p1rlv11603_2 conn=wye bus1=p1rlv11603.2 kV=0.12 Vminpu=0.8 Vmaxpu=1.2 model=1 kW=1.4148353854888571 kvar=0.6393114443430603 Phases=1
New Load.load_p1rlv11612_1 conn=wye bus1=p1rlv11612.1 kV=0.12 Vminpu=0.8 Vmaxpu=1.2 model=1 kW=1.9488456441115172 kvar=0.029623088264837956 Phases=1
New Load.load_p1rlv11612_2 conn=wye bus1=p1rlv11612.2 kV=0.12 Vminpu=0.8 Vmaxpu=1.2 model=1 kW=1.9488456441115172 kvar=0.029623088264837956 Phases=1
New Load.load_p1rlv11668_1 conn=wye bus1=p1rlv11668.1 kV=0.12 Vminpu=0.8 Vmaxpu=1.2 model=1 kW=1.3899560615407072 kvar=0.534907325009869 Phases=1
New Load.load_p1rlv11668_2 conn=wye bus1=p1rlv11668.2 kV=0.12 Vminpu=0.8 Vmaxpu=1.2 model=1 kW=1.3899560615407072 kvar=0.534907325009869 Phases=1
New Load.load_p1rlv11672_1 conn=wye bus1=p1rlv11672.1 kV=0.12 Vminpu=0.8 Vmaxpu=1.2 model=1 kW=3.0363799452523006 kvar=0.8773696756055507 Phases=1
New Load.load_p1rlv11672_2 conn=wye bus1=p1rlv11672.2 kV=0.12 Vminpu=0.8 Vmaxpu=1.2 model=1 kW=3.0363799452523006 kvar=0.8773696756055507 Phases=1
New Load.load_p1rlv11673_1 conn=wye bus1=p1rlv11673.1 kV=0.12 Vminpu=0.8 Vmaxpu=1.2 model=1 kW=0.3315344999322854 kvar=0.13574204648198762 Phases=1
New Load.load_p1rlv11673_2 conn=wye bus1=p1rlv11673.2 kV=0.12 Vminpu=0.8 Vmaxpu=1.2 model=1 kW=0.3315344999322854 kvar=0.13574204648198762 Phases=1
New Load.load_p1rlv11678_1 conn=wye bus1=p1rlv11678.1 kV=0.12 Vminpu=0.8 Vmaxpu=1.2 model=1 kW=2.9631788932574046 kvar=1.0098010803899042 Phases=1
New Load.load_p1rlv11678_2 conn=wye bus1=p1rlv11678.2 kV=0.12 Vminpu=0.8 Vmaxpu=1.2 model=1 kW=2.9631788932574046 kvar=1.0098010803899042 Phases=1
New Load.load_p1rlv11680_1 conn=wye bus1=p1rlv11680.1 kV=0.12 Vminpu=0.8 Vmaxpu=1.2 model=1 kW=4.649329274745809 kvar=0.7638148765075456 Phases=1
New Load.load_p1rlv11680_2 conn=wye bus1=p1rlv11680.2 kV=0.12 Vminpu=0.8 Vmaxpu=1.2 model=1 kW=4.649329274745809 kvar=0.7638148765075456 Phases=1
New Load.load_p1rlv11685_1 conn=wye bus1=p1rlv11685.1 kV=0.12 Vminpu=0.8 Vmaxpu=1.2 model=1 kW=3.735884899619907 kvar=0.7862059386133167 Phases=1
New Load.load_p1rlv11685_2 conn=wye bus1=p1rlv11685.2 kV=0.12 Vminpu=0.8 Vmaxpu=1.2 model=1 kW=3.735884899619907 kvar=0.7862059386133167 Phases=1
New Load.load_p1rlv11688_1 conn=wye bus1=p1rlv11688.1 kV=0.12 Vminpu=0.8 Vmaxpu=1.2 model=1 kW=4.234980013002153 kvar=0.7303750309107965 Phases=1
New Load.load_p1rlv11688_2 conn=wye bus1=p1rlv11688.2 kV=0.12 Vminpu=0.8 Vmaxpu=1.2 model=1 kW=4.234980013002153 kvar=0.7303750309107965 Phases=1
New Load.load_p1rlv12229_1 conn=wye bus1=p1rlv12229.1 kV=0.12 Vminpu=0.8 Vmaxpu=1.2 model=1 kW=0.20361432980391792 kvar=0.11216952854991626 Phases=1
New Load.load_p1rlv12229_2 conn=wye bus1=p1rlv12229.2 kV=0.12 Vminpu=0.8 Vmaxpu=1.2 model=1 kW=0.20361432980391792 kvar=0.11216952854991626 Phases=1
New Load.load_p1rlv12230_1 conn=wye bus1=p1rlv12230.1 kV=0.12 Vminpu=0.8 Vmaxpu=1.2 model=1 kW=3.1426015471760884 kvar=0.5928311844731246 Phases=1
New Load.load_p1rlv12230_2 conn=wye bus1=p1rlv12230.2 kV=0.12 Vminpu=0.8 Vmaxpu=1.2 model=1 kW=3.1426015471760884 kvar=0.5928311844731246 Phases=1
New Load.load_p1rlv12252_1 conn=wye bus1=p1rlv12252.1 kV=0.12 Vminpu=0.8 Vmaxpu=1.2 model=1 kW=3.9800785435301127 kvar=0.2597629929517743 Phases=1
New Load.load_p1rlv12252_2 conn=wye bus1=p1rlv12252.2 kV=0.12 Vminpu=0.8 Vmaxpu=1.2 model=1 kW=3.9800785435301127 kvar=0.2597629929517743 Phases=1
New Load.load_p1rlv12266_1 conn=wye bus1=p1rlv12266.1 kV=0.12 Vminpu=0.8 Vmaxpu=1.2 model=1 kW=1.8309189378455104 kvar=0.6069744647018672 Phases=1
New Load.load_p1rlv12266_2 conn=wye bus1=p1rlv12266.2 kV=0.12 Vminpu=0.8 Vmaxpu=1.2 model=1 kW=1.8309189378455104 kvar=0.6069744647018672 Phases=1
New Load.load_p1rlv12271_1 conn=wye bus1=p1rlv12271.1 kV=0.12 Vminpu=0.8 Vmaxpu=1.2 model=1 kW=3.437343218091953 kvar=0.2896192035894241 Phases=1
New Load.load_p1rlv12271_2 conn=wye bus1=p1rlv12271.2 kV=0.12 Vminpu=0.8 Vmaxpu=1.2 model=1 kW=3.437343218091953 kvar=0.2896192035894241 Phases=1
New Load.load_p1rlv12289_1 conn=wye bus1=p1rlv12289.1 kV=0.12 Vminpu=0.8 Vmaxpu=1.2 model=1 kW=3.2074506745705658 kvar=0.8748005464626454 Phases=1
New Load.load_p1rlv12289_2 conn=wye bus1=p1rlv12289.2 kV=0.12 Vminpu=0.8 Vmaxpu=1.2 model=1 kW=3.2074506745705658 kvar=0.8748005464626454 Phases=1
New Load.load_p1rlv12304_1 conn=wye bus1=p1rlv12304.1 kV=0.12 Vminpu=0.8 Vmaxpu=1.2 model=1 kW=4.639612501586281 kvar=1.0977377571892493 Phases=1
New Load.load_p1rlv12304_2 conn=wye bus1=p1rlv12304.2 kV=0.12 Vminpu=0.8 Vmaxpu=1.2 model=1 kW=4.639612501586281 kvar=1.0977377571892493 Phases=1
New Load.load_p1rlv12305_1 conn=wye bus1=p1rlv12305.1 kV=0.12 Vminpu=0.8 Vmaxpu=1.2 model=1 kW=9.75924767755516 kvar=0.05676641710197242 Phases=1
New Load.load_p1rlv12305_2 conn=wye bus1=p1rlv12305.2 kV=0.12 Vminpu=0.8 Vmaxpu=1.2 model=1 kW=9.75924767755516 kvar=0.05676641710197242 Phases=1
New Load.load_p1rlv12329_1 conn=wye bus1=p1rlv12329.1 kV=0.12 Vminpu=0.8 Vmaxpu=1.2 model=1 kW=1.2766983969851713 kvar=0.5028612878254624 Phases=1
New Load.load_p1rlv12329_2 conn=wye bus1=p1rlv12329.2 kV=0.12 Vminpu=0.8 Vmaxpu=1.2 model=1 kW=1.2766983969851713 kvar=0.5028612878254624 Phases=1
New Load.load_p1rlv12332_1 conn=wye bus1=p1rlv12332.1 kV=0.12 Vminpu=0.8 Vmaxpu=1.2 model=1 kW=2.705813979318459 kvar=0.15815416725260664 Phases=1
New Load.load_p1rlv12332_2 conn=wye bus1=p1rlv12332.2 kV=0.12 Vminpu=0.8 Vmaxpu=1.2 model=1 kW=2.705813979318459 kvar=0.15815416725260664 Phases=1
New Load.load_p1rlv12342_1 conn=wye bus1=p1rlv12342.1 kV=0.12 Vminpu=0.8 Vmaxpu=1.2 model=1 kW=1.5821533102199652 kvar=0.5550200169749278 Phases=1
New Load.load_p1rlv12342_2 conn=wye bus1=p1rlv12342.2 kV=0.12 Vminpu=0.8 Vmaxpu=1.2 model=1 kW=1.5821533102199652 kvar=0.5550200169749278 Phases=1
New Load.load_p1rlv12363_1 conn=wye bus1=p1rlv12363.1 kV=0.12 Vminpu=0.8 Vmaxpu=1.2 model=1 kW=2.716910809895822 kvar=0.8232736368738947 Phases=1
New Load.load_p1rlv12363_2 conn=wye bus1=p1rlv12363.2 kV=0.12 Vminpu=0.8 Vmaxpu=1.2 model=1 kW=2.716910809895822 kvar=0.8232736368738947 Phases=1
New Load.load_p1rlv12366_1 conn=wye bus1=p1rlv12366.1 kV=0.12 Vminpu=0.8 Vmaxpu=1.2 model=1 kW=2.3136780250521567 kvar=0.6274781256964336 Phases=1
New Load.load_p1rlv12366_2 conn=wye bus1=p1rlv12366.2 kV=0.12 Vminpu=0.8 Vmaxpu=1.2 model=1 kW=2.3136780250521567 kvar=0.6274781256964336 Phases=1
New Load.load_p1rlv12389_1 conn=wye bus1=p1rlv12389.1 kV=0.12 Vminpu=0.8 Vmaxpu=1.2 model=1 kW=2.1603354468169496 kvar=0.7593773040340845 Phases=1
New Load.load_p1rlv12389_2 conn=wye bus1=p1rlv12389.2 kV=0.12 Vminpu=0.8 Vmaxpu=1.2 model=1 kW=2.1603354468169496 kvar=0.7593773040340845 Phases=1
New Load.load_p1rlv12409_1 conn=wye bus1=p1rlv12409.1 kV=0.12 Vminpu=0.8 Vmaxpu=1.2 model=1 kW=1.4663769608466568 kvar=0.5502546109327153 Phases=1
New Load.load_p1rlv12409_2 conn=wye bus1=p1rlv12409.2 kV=0.12 Vminpu=0.8 Vmaxpu=1.2 model=1 kW=1.4663769608466568 kvar=0.5502546109327153 Phases=1
New Load.load_p1rlv12411_1 conn=wye bus1=p1rlv12411.1 kV=0.12 Vminpu=0.8 Vmaxpu=1.2 model=1 kW=0.605318582042619 kvar=0.38786447308176675 Phases=1
New Load.load_p1rlv12411_2 conn=wye bus1=p1rlv12411.2 kV=0.12 Vminpu=0.8 Vmaxpu=1.2 model=1 kW=0.605318582042619 kvar=0.38786447308176675 Phases=1
New Load.load_p1rlv12421_1 conn=wye bus1=p1rlv12421.1 kV=0.12 Vminpu=0.8 Vmaxpu=1.2 model=1 kW=2.170918611307458 kvar=0.575413421893771 Phases=1
New Load.load_p1rlv12421_2 conn=wye bus1=p1rlv12421.2 kV=0.12 Vminpu=0.8 Vmaxpu=1.2 model=1 kW=2.170918611307458 kvar=0.575413421893771 Phases=1
New Load.load_p1rlv12443_1 conn=wye bus1=p1rlv12443.1 kV=0.12 Vminpu=0.8 Vmaxpu=1.2 model=1 kW=4.416529851525178 kvar=1.1922168413006689 Phases=1
New Load.load_p1rlv12443_2 conn=wye bus1=p1rlv12443.2 kV=0.12 Vminpu=0.8 Vmaxpu=1.2 model=1 kW=4.416529851525178 kvar=1.1922168413006689 Phases=1
New Load.load_p1rlv12465_1 conn=wye bus1=p1rlv12465.1 kV=0.12 Vminpu=0.8 Vmaxpu=1.2 model=1 kW=0.3919966449037446 kvar=0.25526897783955566 Phases=1
New Load.load_p1rlv12465_2 conn=wye bus1=p1rlv12465.2 kV=0.12 Vminpu=0.8 Vmaxpu=1.2 model=1 kW=0.3919966449037446 kvar=0.25526897783955566 Phases=1
New Load.load_p1rlv12471_1 conn=wye bus1=p1rlv12471.1 kV=0.12 Vminpu=0.8 Vmaxpu=1.2 model=1 kW=2.2427189664810845 kvar=0.6160146168872371 Phases=1
New Load.load_p1rlv12471_2 conn=wye bus1=p1rlv12471.2 kV=0.12 Vminpu=0.8 Vmaxpu=1.2 model=1 kW=2.2427189664810845 kvar=0.6160146168872371 Phases=1
New Load.load_p1rlv12990_1 conn=wye bus1=p1rlv12990.1 kV=0.12 Vminpu=0.8 Vmaxpu=1.2 model=1 kW=1.3786182488338723 kvar=0.5359363058124609 Phases=1
New Load.load_p1rlv12990_2 conn=wye bus1=p1rlv12990.2 kV=0.12 Vminpu=0.8 Vmaxpu=1.2 model=1 kW=1.3786182488338723 kvar=0.5359363058124609 Phases=1
New Load.load_p1rlv12993_1 conn=wye bus1=p1rlv12993.1 kV=0.12 Vminpu=0.8 Vmaxpu=1.2 model=1 kW=4.69722938823788 kvar=0.6546008506549251 Phases=1
New Load.load_p1rlv12993_2 conn=wye bus1=p1rlv12993.2 kV=0.12 Vminpu=0.8 Vmaxpu=1.2 model=1 kW=4.69722938823788 kvar=0.6546008506549251 Phases=1
New Load.load_p1rlv13016_1 conn=wye bus1=p1rlv13016.1 kV=0.12 Vminpu=0.8 Vmaxpu=1.2 model=1 kW=1.3887025712402963 kvar=0.35367905729726073 Phases=1
New Load.load_p1rlv13016_2 conn=wye bus1=p1rlv13016.2 kV=0.12 Vminpu=0.8 Vmaxpu=1.2 model=1 kW=1.3887025712402963 kvar=0.35367905729726073 Phases=1
New Load.load_p1rlv13022_1 conn=wye bus1=p1rlv13022.1 kV=0.12 Vminpu=0.8 Vmaxpu=1.2 model=1 kW=4.709076706416643 kvar=0.09250802079027616 Phases=1
New Load.load_p1rlv13022_2 conn=wye bus1=p1rlv13022.2 kV=0.12 Vminpu=0.8 Vmaxpu=1.2 model=1 kW=4.709076706416643 kvar=0.09250802079027616 Phases=1
New Load.load_p1rlv13069_1 conn=wye bus1=p1rlv13069.1 kV=0.12 Vminpu=0.8 Vmaxpu=1.2 model=1 kW=3.025577912376512 kvar=0.6479907691217454 Phases=1
New Load.load_p1rlv13069_2 conn=wye bus1=p1rlv13069.2 kV=0.12 Vminpu=0.8 Vmaxpu=1.2 model=1 kW=3.025577912376512 kvar=0.6479907691217454 Phases=1
New Load.load_p1rlv13070_1 conn=wye bus1=p1rlv13070.1 kV=0.12 Vminpu=0.8 Vmaxpu=1.2 model=1 kW=1.5273570095169426 kvar=0.3555993518165159 Phases=1
New Load.load_p1rlv13070_2 conn=wye bus1=p1rlv13070.2 kV=0.12 Vminpu=0.8 Vmaxpu=1.2 model=1 kW=1.5273570095169426 kvar=0.3555993518165159 Phases=1
New Load.load_p1rlv13288_1 conn=wye bus1=p1rlv13288.1 kV=0.12 Vminpu=0.8 Vmaxpu=1.2 model=1 kW=2.08053934867757 kvar=0.19082517830123075 Phases=1
New Load.load_p1rlv13288_2 conn=wye bus1=p1rlv13288.2 kV=0.12 Vminpu=0.8 Vmaxpu=1.2 model=1 kW=2.08053934867757 kvar=0.19082517830123075 Phases=1
New Load.load_p1rlv13305_1 conn=wye bus1=p1rlv13305.1 kV=0.12 Vminpu=0.8 Vmaxpu=1.2 model=1 kW=2.446531565278448 kvar=0.9314679219387375 Phases=1
New Load.load_p1rlv13305_2 conn=wye bus1=p1rlv13305.2 kV=0.12 Vminpu=0.8 Vmaxpu=1.2 model=1 kW=2.446531565278448 kvar=0.9314679219387375 Phases=1
New Load.load_p1rlv13323_1 conn=wye bus1=p1rlv13323.1 kV=0.12 Vminpu=0.8 Vmaxpu=1.2 model=1 kW=2.8435217064999505 kvar=1.2707500227541624 Phases=1
New Load.load_p1rlv13323_2 conn=wye bus1=p1rlv13323.2 kV=0.12 Vminpu=0.8 Vmaxpu=1.2 model=1 kW=2.8435217064999505 kvar=1.2707500227541624 Phases=1
New Load.load_p1rlv13327_1 conn=wye bus1=p1rlv13327.1 kV=0.12 Vminpu=0.8 Vmaxpu=1.2 model=1 kW=2.3374419606114465 kvar=0.8276898777002473 Phases=1
New Load.load_p1rlv13327_2 conn=wye bus1=p1rlv13327.2 kV=0.12 Vminpu=0.8 Vmaxpu=1.2 model=1 kW=2.3374419606114465 kvar=0.8276898777002473 Phases=1
New Load.load_p1rlv13331_1 conn=wye bus1=p1rlv13331.1 kV=0.12 Vminpu=0.8 Vmaxpu=1.2 model=1 kW=1.8356013828829605 kvar=1.1227278048667932 Phases=1
New Load.load_p1rlv13331_2 conn=wye bus1=p1rlv13331.2 kV=0.12 Vminpu=0.8 Vmaxpu=1.2 model=1 kW=1.8356013828829605 kvar=1.1227278048667932 Phases=1
New Load.load_p1rlv13729_1 conn=wye bus1=p1rlv13729.1 kV=0.12 Vminpu=0.8 Vmaxpu=1.2 model=1 kW=4.402403854616895 kvar=1.5232462549378045 Phases=1
New Load.load_p1rlv13729_2 conn=wye bus1=p1rlv13729.2 kV=0.12 Vminpu=0.8 Vmaxpu=1.2 model=1 kW=4.402403854616895 kvar=1.5232462549378045 Phases=1
New Load.load_p1rlv13732_1 conn=wye bus1=p1rlv13732.1 kV=0.12 Vminpu=0.8 Vmaxpu=1.2 model=1 kW=3.56773081582568 kvar=0.025560880160820944 Phases=1
New Load.load_p1rlv13732_2 conn=wye bus1=p1rlv13732.2 kV=0.12 Vminpu=0.8 Vmaxpu=1.2 model=1 kW=3.56773081582568 kvar=0.025560880160820944 Phases=1
New Load.load_p1rlv13734_1 conn=wye bus1=p1rlv13734.1 kV=0.12 Vminpu=0.8 Vmaxpu=1.2 model=1 kW=0.7230324712606107 kvar=0.2699076137208305 Phases=1
New Load.load_p1rlv13734_2 conn=wye bus1=p1rlv13734.2 kV=0.12 Vminpu=0.8 Vmaxpu=1.2 model=1 kW=0.7230324712606107 kvar=0.2699076137208305 Phases=1
New Load.load_p1rlv13735_1 conn=wye bus1=p1rlv13735.1 kV=0.12 Vminpu=0.8 Vmaxpu=1.2 model=1 kW=4.279334729071533 kvar=0.018922139033990728 Phases=1
New Load.load_p1rlv13735_2 conn=wye bus1=p1rlv13735.2 kV=0.12 Vminpu=0.8 Vmaxpu=1.2 model=1 kW=4.279334729071533 kvar=0.018922139033990728 Phases=1
New Load.load_p1rlv13736_1 conn=wye bus1=p1rlv13736.1 kV=0.12 Vminpu=0.8 Vmaxpu=1.2 model=1 kW=2.116603176693932 kvar=0.3416039415731394 Phases=1
New Load.load_p1rlv13736_2 conn=wye bus1=p1rlv13736.2 kV=0.12 Vminpu=0.8 Vmaxpu=1.2 model=1 kW=2.116603176693932 kvar=0.3416039415731394 Phases=1
New Load.load_p1rlv13737_1 conn=wye bus1=p1rlv13737.1 kV=0.12 Vminpu=0.8 Vmaxpu=1.2 model=1 kW=2.848181227821289 kvar=0.7500613200028317 Phases=1
New Load.load_p1rlv13737_2 conn=wye bus1=p1rlv13737.2 kV=0.12 Vminpu=0.8 Vmaxpu=1.2 model=1 kW=2.848181227821289 kvar=0.7500613200028317 Phases=1
New Load.load_p1rlv13738_1 conn=wye bus1=p1rlv13738.1 kV=0.12 Vminpu=0.8 Vmaxpu=1.2 model=1 kW=1.4797522869305584 kvar=0.6160439253264267 Phases=1
New Load.load_p1rlv13738_2 conn=wye bus1=p1rlv13738.2 kV=0.12 Vminpu=0.8 Vmaxpu=1.2 model=1 kW=1.4797522869305584 kvar=0.6160439253264267 Phases=1
New Load.load_p1rlv13740_1 conn=wye bus1=p1rlv13740.1 kV=0.12 Vminpu=0.8 Vmaxpu=1.2 model=1 kW=3.615406535304497 kvar=0.36948758518384683 Phases=1
New Load.load_p1rlv13740_2 conn=wye bus1=p1rlv13740.2 kV=0.12 Vminpu=0.8 Vmaxpu=1.2 model=1 kW=3.615406535304497 kvar=0.36948758518384683 Phases=1
New Load.load_p1rlv13741_1 conn=wye bus1=p1rlv13741.1 kV=0.12 Vminpu=0.8 Vmaxpu=1.2 model=1 kW=5.0584200922999685 kvar=1.0574657416885258 Phases=1
New Load.load_p1rlv13741_2 conn=wye bus1=p1rlv13741.2 kV=0.12 Vminpu=0.8 Vmaxpu=1.2 model=1 kW=5.0584200922999685 kvar=1.0574657416885258 Phases=1
New Load.load_p1rlv13742_1 conn=wye bus1=p1rlv13742.1 kV=0.12 Vminpu=0.8 Vmaxpu=1.2 model=1 kW=2.606959916668558 kvar=0.5550307077474157 Phases=1
New Load.load_p1rlv13742_2 conn=wye bus1=p1rlv13742.2 kV=0.12 Vminpu=0.8 Vmaxpu=1.2 model=1 kW=2.606959916668558 kvar=0.5550307077474157 Phases=1
New Load.load_p1rlv13744_1 conn=wye bus1=p1rlv13744.1 kV=0.12 Vminpu=0.8 Vmaxpu=1.2 model=1 kW=1.2596055778412756 kvar=0.4460523908595607 Phases=1
New Load.load_p1rlv13744_2 conn=wye bus1=p1rlv13744.2 kV=0.12 Vminpu=0.8 Vmaxpu=1.2 model=1 kW=1.2596055778412756 kvar=0.4460523908595607 Phases=1
New Load.load_p1rlv13746_1 conn=wye bus1=p1rlv13746.1 kV=0.12 Vminpu=0.8 Vmaxpu=1.2 model=1 kW=4.24613321897865 kvar=0.9528039237137753 Phases=1
New Load.load_p1rlv13746_2 conn=wye bus1=p1rlv13746.2 kV=0.12 Vminpu=0.8 Vmaxpu=1.2 model=1 kW=4.24613321897865 kvar=0.9528039237137753 Phases=1
New Load.load_p1rlv13747_1 conn=wye bus1=p1rlv13747.1 kV=0.12 Vminpu=0.8 Vmaxpu=1.2 model=1 kW=1.1206689642843692 kvar=0.34257205075767067 Phases=1
New Load.load_p1rlv13747_2 conn=wye bus1=p1rlv13747.2 kV=0.12 Vminpu=0.8 Vmaxpu=1.2 model=1 kW=1.1206689642843692 kvar=0.34257205075767067 Phases=1
New Load.load_p1rlv13748_1 conn=wye bus1=p1rlv13748.1 kV=0.12 Vminpu=0.8 Vmaxpu=1.2 model=1 kW=1.4786893203254163 kvar=0.3666592754227633 Phases=1
New Load.load_p1rlv13748_2 conn=wye bus1=p1rlv13748.2 kV=0.12 Vminpu=0.8 Vmaxpu=1.2 model=1 kW=1.4786893203254163 kvar=0.3666592754227633 Phases=1
New Load.load_p1rlv13750_1 conn=wye bus1=p1rlv13750.1 kV=0.12 Vminpu=0.8 Vmaxpu=1.2 model=1 kW=3.025577912376512 kvar=0.6479907691217454 Phases=1
New Load.load_p1rlv13750_2 conn=wye bus1=p1rlv13750.2 kV=0.12 Vminpu=0.8 Vmaxpu=1.2 model=1 kW=3.025577912376512 kvar=0.6479907691217454 Phases=1
New Load.load_p1rlv13753_1 conn=wye bus1=p1rlv13753.1 kV=0.12 Vminpu=0.8 Vmaxpu=1.2 model=1 kW=2.4991495076440033 kvar=0.3360328736424813 Phases=1
New Load.load_p1rlv13753_2 conn=wye bus1=p1rlv13753.2 kV=0.12 Vminpu=0.8 Vmaxpu=1.2 model=1 kW=2.4991495076440033 kvar=0.3360328736424813 Phases=1
New Load.load_p1rlv13755_1 conn=wye bus1=p1rlv13755.1 kV=0.12 Vminpu=0.8 Vmaxpu=1.2 model=1 kW=1.5365841293045384 kvar=0.535303100231416 Phases=1
New Load.load_p1rlv13755_2 conn=wye bus1=p1rlv13755.2 kV=0.12 Vminpu=0.8 Vmaxpu=1.2 model=1 kW=1.5365841293045384 kvar=0.535303100231416 Phases=1
New Load.load_p1rlv13756_1 conn=wye bus1=p1rlv13756.1 kV=0.12 Vminpu=0.8 Vmaxpu=1.2 model=1 kW=1.685213211371405 kvar=0.7584354740780123 Phases=1
New Load.load_p1rlv13756_2 conn=wye bus1=p1rlv13756.2 kV=0.12 Vminpu=0.8 Vmaxpu=1.2 model=1 kW=1.685213211371405 kvar=0.7584354740780123 Phases=1
New Load.load_p1rlv13757_1 conn=wye bus1=p1rlv13757.1 kV=0.12 Vminpu=0.8 Vmaxpu=1.2 model=1 kW=0.7150544099742788 kvar=0.32563033080643944 Phases=1
New Load.load_p1rlv13757_2 conn=wye bus1=p1rlv13757.2 kV=0.12 Vminpu=0.8 Vmaxpu=1.2 model=1 kW=0.7150544099742788 kvar=0.32563033080643944 Phases=1
New Load.load_p1rlv13759_1 conn=wye bus1=p1rlv13759.1 kV=0.12 Vminpu=0.8 Vmaxpu=1.2 model=1 kW=1.9444657359992037 kvar=1.058006608995704 Phases=1
New Load.load_p1rlv13759_2 conn=wye bus1=p1rlv13759.2 kV=0.12 Vminpu=0.8 Vmaxpu=1.2 model=1 kW=1.9444657359992037 kvar=1.058006608995704 Phases=1
New Load.load_p1rlv13761_1 conn=wye bus1=p1rlv13761.1 kV=0.12 Vminpu=0.8 Vmaxpu=1.2 model=1 kW=2.6277722044378486 kvar=0.6969686665668667 Phases=1
New Load.load_p1rlv13761_2 conn=wye bus1=p1rlv13761.2 kV=0.12 Vminpu=0.8 Vmaxpu=1.2 model=1 kW=2.6277722044378486 kvar=0.6969686665668667 Phases=1
New Load.load_p1rlv13763_1 conn=wye bus1=p1rlv13763.1 kV=0.12 Vminpu=0.8 Vmaxpu=1.2 model=1 kW=1.8744605841296944 kvar=0.5892496700768608 Phases=1
New Load.load_p1rlv13763_2 conn=wye bus1=p1rlv13763.2 kV=0.12 Vminpu=0.8 Vmaxpu=1.2 model=1 kW=1.8744605841296944 kvar=0.5892496700768608 Phases=1
New Load.load_p1rlv13764_1 conn=wye bus1=p1rlv13764.1 kV=0.12 Vminpu=0.8 Vmaxpu=1.2 model=1 kW=1.502751049099443 kvar=0.7555421856436744 Phases=1
New Load.load_p1rlv13764_2 conn=wye bus1=p1rlv13764.2 kV=0.12 Vminpu=0.8 Vmaxpu=1.2 model=1 kW=1.502751049099443 kvar=0.7555421856436744 Phases=1
New Load.load_p1rlv13765_1 conn=wye bus1=p1rlv13765.1 kV=0.12 Vminpu=0.8 Vmaxpu=1.2 model=1 kW=3.634023352191214 kvar=1.2934174607236286 Phases=1
New Load.load_p1rlv13765_2 conn=wye bus1=p1rlv13765.2 kV=0.12 Vminpu=0.8 Vmaxpu=1.2 model=1 kW=3.634023352191214 kvar=1.2934174607236286 Phases=1
New Load.load_p1rlv13766_1 conn=wye bus1=p1rlv13766.1 kV=0.12 Vminpu=0.8 Vmaxpu=1.2 model=1 kW=2.602187576732413 kvar=0.457393852963912 Phases=1
New Load.load_p1rlv13766_2 conn=wye bus1=p1rlv13766.2 kV=0.12 Vminpu=0.8 Vmaxpu=1.2 model=1 kW=2.602187576732413 kvar=0.457393852963912 Phases=1
New Load.load_p1rlv13767_1 conn=wye bus1=p1rlv13767.1 kV=0.12 Vminpu=0.8 Vmaxpu=1.2 model=1 kW=1.1813646779377422 kvar=0.20173832232537287 Phases=1
New Load.load_p1rlv13767_2 conn=wye bus1=p1rlv13767.2 kV=0.12 Vminpu=0.8 Vmaxpu=1.2 model=1 kW=1.1813646779377422 kvar=0.20173832232537287 Phases=1
New Load.load_p1rlv13769_1 conn=wye bus1=p1rlv13769.1 kV=0.12 Vminpu=0.8 Vmaxpu=1.2 model=1 kW=3.025577912376512 kvar=0.6479907691217454 Phases=1
New Load.load_p1rlv13769_2 conn=wye bus1=p1rlv13769.2 kV=0.12 Vminpu=0.8 Vmaxpu=1.2 model=1 kW=3.025577912376512 kvar=0.6479907691217454 Phases=1
New Load.load_p1rlv13770_1 conn=wye bus1=p1rlv13770.1 kV=0.12 Vminpu=0.8 Vmaxpu=1.2 model=1 kW=3.8939358223380807 kvar=0.6690937458929831 Phases=1
New Load.load_p1rlv13770_2 conn=wye bus1=p1rlv13770.2 kV=0.12 Vminpu=0.8 Vmaxpu=1.2 model=1 kW=3.8939358223380807 kvar=0.6690937458929831 Phases=1
New Load.load_p1rlv13771_1 conn=wye bus1=p1rlv13771.1 kV=0.12 Vminpu=0.8 Vmaxpu=1.2 model=1 kW=4.073647835052278 kvar=0.9870900939844905 Phases=1
New Load.load_p1rlv13771_2 conn=wye bus1=p1rlv13771.2 kV=0.12 Vminpu=0.8 Vmaxpu=1.2 model=1 kW=4.073647835052278 kvar=0.9870900939844905 Phases=1
New Load.load_p1rlv13772_1 conn=wye bus1=p1rlv13772.1 kV=0.12 Vminpu=0.8 Vmaxpu=1.2 model=1 kW=2.565985425671141 kvar=0.8139237791533422 Phases=1
New Load.load_p1rlv13772_2 conn=wye bus1=p1rlv13772.2 kV=0.12 Vminpu=0.8 Vmaxpu=1.2 model=1 kW=2.565985425671141 kvar=0.8139237791533422 Phases=1
New Load.load_p1rlv13773_1 conn=wye bus1=p1rlv13773.1 kV=0.12 Vminpu=0.8 Vmaxpu=1.2 model=1 kW=2.6254798786649576 kvar=0.2529249421512141 Phases=1
New Load.load_p1rlv13773_2 conn=wye bus1=p1rlv13773.2 kV=0.12 Vminpu=0.8 Vmaxpu=1.2 model=1 kW=2.6254798786649576 kvar=0.2529249421512141 Phases=1
New Load.load_p1rlv13774_1 conn=wye bus1=p1rlv13774.1 kV=0.12 Vminpu=0.8 Vmaxpu=1.2 model=1 kW=1.7159918110243964 kvar=0.6981241636967264 Phases=1
New Load.load_p1rlv13774_2 conn=wye bus1=p1rlv13774.2 kV=0.12 Vminpu=0.8 Vmaxpu=1.2 model=1 kW=1.7159918110243964 kvar=0.6981241636967264 Phases=1
New Load.load_p1rlv13775_1 conn=wye bus1=p1rlv13775.1 kV=0.12 Vminpu=0.8 Vmaxpu=1.2 model=1 kW=1.5877230897388055 kvar=0.4388767979233367 Phases=1
New Load.load_p1rlv13775_2 conn=wye bus1=p1rlv13775.2 kV=0.12 Vminpu=0.8 Vmaxpu=1.2 model=1 kW=1.5877230897388055 kvar=0.4388767979233367 Phases=1
New Load.load_p1rlv13813_1 conn=wye bus1=p1rlv13813.1 kV=0.12 Vminpu=0.8 Vmaxpu=1.2 model=1 kW=2.559543722017981 kvar=0.7101531402521069 Phases=1
New Load.load_p1rlv13813_2 conn=wye bus1=p1rlv13813.2 kV=0.12 Vminpu=0.8 Vmaxpu=1.2 model=1 kW=2.559543722017981 kvar=0.7101531402521069 Phases=1
New Load.load_p1rlv13939_1 conn=wye bus1=p1rlv13939.1 kV=0.12 Vminpu=0.8 Vmaxpu=1.2 model=1 kW=1.1778435365684476 kvar=0.2453456492239868 Phases=1
New Load.load_p1rlv13939_2 conn=wye bus1=p1rlv13939.2 kV=0.12 Vminpu=0.8 Vmaxpu=1.2 model=1 kW=1.1778435365684476 kvar=0.2453456492239868 Phases=1
New Load.load_p1rlv13940_1 conn=wye bus1=p1rlv13940.1 kV=0.12 Vminpu=0.8 Vmaxpu=1.2 model=1 kW=2.1698158732703443 kvar=0.8490689598373361 Phases=1
New Load.load_p1rlv13940_2 conn=wye bus1=p1rlv13940.2 kV=0.12 Vminpu=0.8 Vmaxpu=1.2 model=1 kW=2.1698158732703443 kvar=0.8490689598373361 Phases=1
New Load.load_p1rlv13941_1 conn=wye bus1=p1rlv13941.1 kV=0.12 Vminpu=0.8 Vmaxpu=1.2 model=1 kW=1.9858851321071265 kvar=0.6028452176672948 Phases=1
New Load.load_p1rlv13941_2 conn=wye bus1=p1rlv13941.2 kV=0.12 Vminpu=0.8 Vmaxpu=1.2 model=1 kW=1.9858851321071265 kvar=0.6028452176672948 Phases=1
New Load.load_p1rlv13947_1 conn=wye bus1=p1rlv13947.1 kV=0.12 Vminpu=0.8 Vmaxpu=1.2 model=1 kW=1.2807112493226631 kvar=0.5756037140311296 Phases=1
New Load.load_p1rlv13947_2 conn=wye bus1=p1rlv13947.2 kV=0.12 Vminpu=0.8 Vmaxpu=1.2 model=1 kW=1.2807112493226631 kvar=0.5756037140311296 Phases=1
New Load.load_p1rlv13950_1 conn=wye bus1=p1rlv13950.1 kV=0.12 Vminpu=0.8 Vmaxpu=1.2 model=1 kW=3.459276697523187 kvar=0.8425022918187992 Phases=1
New Load.load_p1rlv13950_2 conn=wye bus1=p1rlv13950.2 kV=0.12 Vminpu=0.8 Vmaxpu=1.2 model=1 kW=3.459276697523187 kvar=0.8425022918187992 Phases=1
New Load.load_p1rlv13953_1 conn=wye bus1=p1rlv13953.1 kV=0.12 Vminpu=0.8 Vmaxpu=1.2 model=1 kW=1.7024371931547229 kvar=0.5884998483090965 Phases=1
New Load.load_p1rlv13953_2 conn=wye bus1=p1rlv13953.2 kV=0.12 Vminpu=0.8 Vmaxpu=1.2 model=1 kW=1.7024371931547229 kvar=0.5884998483090965 Phases=1
New Load.load_p1rlv13955_1 conn=wye bus1=p1rlv13955.1 kV=0.12 Vminpu=0.8 Vmaxpu=1.2 model=1 kW=7.1691031054341545 kvar=2.683407125060723 Phases=1
New Load.load_p1rlv13955_2 conn=wye bus1=p1rlv13955.2 kV=0.12 Vminpu=0.8 Vmaxpu=1.2 model=1 kW=7.1691031054341545 kvar=2.683407125060723 Phases=1
New Load.load_p1rlv13958_1 conn=wye bus1=p1rlv13958.1 kV=0.12 Vminpu=0.8 Vmaxpu=1.2 model=1 kW=5.80019062558268 kvar=2.8347992077318325 Phases=1
New Load.load_p1rlv13958_2 conn=wye bus1=p1rlv13958.2 kV=0.12 Vminpu=0.8 Vmaxpu=1.2 model=1 kW=5.80019062558268 kvar=2.8347992077318325 Phases=1
New Load.load_p1rlv13960_1 conn=wye bus1=p1rlv13960.1 kV=0.12 Vminpu=0.8 Vmaxpu=1.2 model=1 kW=1.9115470716545817 kvar=0.7511996531223851 Phases=1
New Load.load_p1rlv13960_2 conn=wye bus1=p1rlv13960.2 kV=0.12 Vminpu=0.8 Vmaxpu=1.2 model=1 kW=1.9115470716545817 kvar=0.7511996531223851 Phases=1
New Load.load_p1rlv13964_1 conn=wye bus1=p1rlv13964.1 kV=0.12 Vminpu=0.8 Vmaxpu=1.2 model=1 kW=3.910200682298975 kvar=0.5555412020426419 Phases=1
New Load.load_p1rlv13964_2 conn=wye bus1=p1rlv13964.2 kV=0.12 Vminpu=0.8 Vmaxpu=1.2 model=1 kW=3.910200682298975 kvar=0.5555412020426419 Phases=1
New Load.load_p1rlv13968_1 conn=wye bus1=p1rlv13968.1 kV=0.12 Vminpu=0.8 Vmaxpu=1.2 model=1 kW=3.1365241109094124 kvar=1.066691329561009 Phases=1
New Load.load_p1rlv13968_2 conn=wye bus1=p1rlv13968.2 kV=0.12 Vminpu=0.8 Vmaxpu=1.2 model=1 kW=3.1365241109094124 kvar=1.066691329561009 Phases=1
New Load.load_p1rlv14282_1 conn=wye bus1=p1rlv14282.1 kV=0.12 Vminpu=0.8 Vmaxpu=1.2 model=1 kW=2.565985425671141 kvar=0.8139237791533422 Phases=1
New Load.load_p1rlv14282_2 conn=wye bus1=p1rlv14282.2 kV=0.12 Vminpu=0.8 Vmaxpu=1.2 model=1 kW=2.565985425671141 kvar=0.8139237791533422 Phases=1
New Load.load_p1rlv14291_1 conn=wye bus1=p1rlv14291.1 kV=0.12 Vminpu=0.8 Vmaxpu=1.2 model=1 kW=3.201469129926609 kvar=1.0819349187657892 Phases=1
New Load.load_p1rlv14291_2 conn=wye bus1=p1rlv14291.2 kV=0.12 Vminpu=0.8 Vmaxpu=1.2 model=1 kW=3.201469129926609 kvar=1.0819349187657892 Phases=1
New Load.load_p1rlv14313_1 conn=wye bus1=p1rlv14313.1 kV=0.12 Vminpu=0.8 Vmaxpu=1.2 model=1 kW=7.608568939316635 kvar=1.5488339278434438 Phases=1
New Load.load_p1rlv14313_2 conn=wye bus1=p1rlv14313.2 kV=0.12 Vminpu=0.8 Vmaxpu=1.2 model=1 kW=7.608568939316635 kvar=1.5488339278434438 Phases=1
New Load.load_p1rlv14317_1 conn=wye bus1=p1rlv14317.1 kV=0.12 Vminpu=0.8 Vmaxpu=1.2 model=1 kW=3.025577912376512 kvar=0.6479907691217454 Phases=1
New Load.load_p1rlv14317_2 conn=wye bus1=p1rlv14317.2 kV=0.12 Vminpu=0.8 Vmaxpu=1.2 model=1 kW=3.025577912376512 kvar=0.6479907691217454 Phases=1