New Loadshape.res_kw_5916_pu npts= 35040 interval=0.25 mult = (file=/projects/distcosts3/SMART-DS/v1.0/2018/SFO_xfmr/P1R/profiles/res_kw_5916_pu.csv) qmult = (file=/projects/distcosts3/SMART-DS/v1.0/2018/SFO_xfmr/P1R/profiles/res_kvar_5916_pu.csv)

New Loadshape.res_kw_8031_pu npts= 35040 interval=0.25 mult = (file=/projects/distcosts3/SMART-DS/v1.0/2018/SFO_xfmr/P1R/profiles/res_kw_8031_pu.csv) qmult = (file=/projects/distcosts3/SMART-DS/v1.0/2018/SFO_xfmr/P1R/profiles/res_kvar_8031_pu.csv)

New Loadshape.res_kw_12818_pu npts= 35040 interval=0.25 mult = (file=/projects/distcosts3/SMART-DS/v1.0/2018/SFO_xfmr/P1R/profiles/res_kw_12818_pu.csv) qmult = (file=/projects/distcosts3/SMART-DS/v1.0/2018/SFO_xfmr/P1R/profiles/res_kvar_12818_pu.csv)

New Loadshape.res_kw_4922_pu npts= 35040 interval=0.25 mult = (file=/projects/distcosts3/SMART-DS/v1.0/2018/SFO_xfmr/P1R/profiles/res_kw_4922_pu.csv) qmult = (file=/projects/distcosts3/SMART-DS/v1.0/2018/SFO_xfmr/P1R/profiles/res_kvar_4922_pu.csv)

New Loadshape.res_kw_7349_pu npts= 35040 interval=0.25 mult = (file=/projects/distcosts3/SMART-DS/v1.0/2018/SFO_xfmr/P1R/profiles/res_kw_7349_pu.csv) qmult = (file=/projects/distcosts3/SMART-DS/v1.0/2018/SFO_xfmr/P1R/profiles/res_kvar_7349_pu.csv)

New Loadshape.res_kw_7613_pu npts= 35040 interval=0.25 mult = (file=/projects/distcosts3/SMART-DS/v1.0/2018/SFO_xfmr/P1R/profiles/res_kw_7613_pu.csv) qmult = (file=/projects/distcosts3/SMART-DS/v1.0/2018/SFO_xfmr/P1R/profiles/res_kvar_7613_pu.csv)

New Loadshape.res_kw_5457_pu npts= 35040 interval=0.25 mult = (file=/projects/distcosts3/SMART-DS/v1.0/2018/SFO_xfmr/P1R/profiles/res_kw_5457_pu.csv) qmult = (file=/projects/distcosts3/SMART-DS/v1.0/2018/SFO_xfmr/P1R/profiles/res_kvar_5457_pu.csv)

New Loadshape.res_kw_10584_pu npts= 35040 interval=0.25 mult = (file=/projects/distcosts3/SMART-DS/v1.0/2018/SFO_xfmr/P1R/profiles/res_kw_10584_pu.csv) qmult = (file=/projects/distcosts3/SMART-DS/v1.0/2018/SFO_xfmr/P1R/profiles/res_kvar_10584_pu.csv)

New Loadshape.res_kw_7412_pu npts= 35040 interval=0.25 mult = (file=/projects/distcosts3/SMART-DS/v1.0/2018/SFO_xfmr/P1R/profiles/res_kw_7412_pu.csv) qmult = (file=/projects/distcosts3/SMART-DS/v1.0/2018/SFO_xfmr/P1R/profiles/res_kvar_7412_pu.csv)

New Loadshape.res_kw_11808_pu npts= 35040 interval=0.25 mult = (file=/projects/distcosts3/SMART-DS/v1.0/2018/SFO_xfmr/P1R/profiles/res_kw_11808_pu.csv) qmult = (file=/projects/distcosts3/SMART-DS/v1.0/2018/SFO_xfmr/P1R/profiles/res_kvar_11808_pu.csv)

New Loadshape.res_kw_5148_pu npts= 35040 interval=0.25 mult = (file=/projects/distcosts3/SMART-DS/v1.0/2018/SFO_xfmr/P1R/profiles/res_kw_5148_pu.csv) qmult = (file=/projects/distcosts3/SMART-DS/v1.0/2018/SFO_xfmr/P1R/profiles/res_kvar_5148_pu.csv)

New Loadshape.res_kw_9673_pu npts= 35040 interval=0.25 mult = (file=/projects/distcosts3/SMART-DS/v1.0/2018/SFO_xfmr/P1R/profiles/res_kw_9673_pu.csv) qmult = (file=/projects/distcosts3/SMART-DS/v1.0/2018/SFO_xfmr/P1R/profiles/res_kvar_9673_pu.csv)

New Loadshape.res_kw_8077_pu npts= 35040 interval=0.25 mult = (file=/projects/distcosts3/SMART-DS/v1.0/2018/SFO_xfmr/P1R/profiles/res_kw_8077_pu.csv) qmult = (file=/projects/distcosts3/SMART-DS/v1.0/2018/SFO_xfmr/P1R/profiles/res_kvar_8077_pu.csv)

New Loadshape.res_kw_10562_pu npts= 35040 interval=0.25 mult = (file=/projects/distcosts3/SMART-DS/v1.0/2018/SFO_xfmr/P1R/profiles/res_kw_10562_pu.csv) qmult = (file=/projects/distcosts3/SMART-DS/v1.0/2018/SFO_xfmr/P1R/profiles/res_kvar_10562_pu.csv)

New Loadshape.res_kw_10332_pu npts= 35040 interval=0.25 mult = (file=/projects/distcosts3/SMART-DS/v1.0/2018/SFO_xfmr/P1R/profiles/res_kw_10332_pu.csv) qmult = (file=/projects/distcosts3/SMART-DS/v1.0/2018/SFO_xfmr/P1R/profiles/res_kvar_10332_pu.csv)

New Loadshape.res_kw_14083_pu npts= 35040 interval=0.25 mult = (file=/projects/distcosts3/SMART-DS/v1.0/2018/SFO_xfmr/P1R/profiles/res_kw_14083_pu.csv) qmult = (file=/projects/distcosts3/SMART-DS/v1.0/2018/SFO_xfmr/P1R/profiles/res_kvar_14083_pu.csv)

New Loadshape.res_kw_747_pu npts= 35040 interval=0.25 mult = (file=/projects/distcosts3/SMART-DS/v1.0/2018/SFO_xfmr/P1R/profiles/res_kw_747_pu.csv) qmult = (file=/projects/distcosts3/SMART-DS/v1.0/2018/SFO_xfmr/P1R/profiles/res_kvar_747_pu.csv)

New Loadshape.res_kw_4140_pu npts= 35040 interval=0.25 mult = (file=/projects/distcosts3/SMART-DS/v1.0/2018/SFO_xfmr/P1R/profiles/res_kw_4140_pu.csv) qmult = (file=/projects/distcosts3/SMART-DS/v1.0/2018/SFO_xfmr/P1R/profiles/res_kvar_4140_pu.csv)

New Loadshape.res_kw_3242_pu npts= 35040 interval=0.25 mult = (file=/projects/distcosts3/SMART-DS/v1.0/2018/SFO_xfmr/P1R/profiles/res_kw_3242_pu.csv) qmult = (file=/projects/distcosts3/SMART-DS/v1.0/2018/SFO_xfmr/P1R/profiles/res_kvar_3242_pu.csv)

New Loadshape.res_kw_7653_pu npts= 35040 interval=0.25 mult = (file=/projects/distcosts3/SMART-DS/v1.0/2018/SFO_xfmr/P1R/profiles/res_kw_7653_pu.csv) qmult = (file=/projects/distcosts3/SMART-DS/v1.0/2018/SFO_xfmr/P1R/profiles/res_kvar_7653_pu.csv)

New Loadshape.res_kw_2004_pu npts= 35040 interval=0.25 mult = (file=/projects/distcosts3/SMART-DS/v1.0/2018/SFO_xfmr/P1R/profiles/res_kw_2004_pu.csv) qmult = (file=/projects/distcosts3/SMART-DS/v1.0/2018/SFO_xfmr/P1R/profiles/res_kvar_2004_pu.csv)

New Loadshape.res_kw_7105_pu npts= 35040 interval=0.25 mult = (file=/projects/distcosts3/SMART-DS/v1.0/2018/SFO_xfmr/P1R/profiles/res_kw_7105_pu.csv) qmult = (file=/projects/distcosts3/SMART-DS/v1.0/2018/SFO_xfmr/P1R/profiles/res_kvar_7105_pu.csv)

New Loadshape.res_kw_14163_pu npts= 35040 interval=0.25 mult = (file=/projects/distcosts3/SMART-DS/v1.0/2018/SFO_xfmr/P1R/profiles/res_kw_14163_pu.csv) qmult = (file=/projects/distcosts3/SMART-DS/v1.0/2018/SFO_xfmr/P1R/profiles/res_kvar_14163_pu.csv)

New Loadshape.res_kw_4990_pu npts= 35040 interval=0.25 mult = (file=/projects/distcosts3/SMART-DS/v1.0/2018/SFO_xfmr/P1R/profiles/res_kw_4990_pu.csv) qmult = (file=/projects/distcosts3/SMART-DS/v1.0/2018/SFO_xfmr/P1R/profiles/res_kvar_4990_pu.csv)

New Loadshape.res_kw_10071_pu npts= 35040 interval=0.25 mult = (file=/projects/distcosts3/SMART-DS/v1.0/2018/SFO_xfmr/P1R/profiles/res_kw_10071_pu.csv) qmult = (file=/projects/distcosts3/SMART-DS/v1.0/2018/SFO_xfmr/P1R/profiles/res_kvar_10071_pu.csv)

New Loadshape.res_kw_11613_pu npts= 35040 interval=0.25 mult = (file=/projects/distcosts3/SMART-DS/v1.0/2018/SFO_xfmr/P1R/profiles/res_kw_11613_pu.csv) qmult = (file=/projects/distcosts3/SMART-DS/v1.0/2018/SFO_xfmr/P1R/profiles/res_kvar_11613_pu.csv)

New Loadshape.res_kw_10156_pu npts= 35040 interval=0.25 mult = (file=/projects/distcosts3/SMART-DS/v1.0/2018/SFO_xfmr/P1R/profiles/res_kw_10156_pu.csv) qmult = (file=/projects/distcosts3/SMART-DS/v1.0/2018/SFO_xfmr/P1R/profiles/res_kvar_10156_pu.csv)

New Loadshape.res_kw_3633_pu npts= 35040 interval=0.25 mult = (file=/projects/distcosts3/SMART-DS/v1.0/2018/SFO_xfmr/P1R/profiles/res_kw_3633_pu.csv) qmult = (file=/projects/distcosts3/SMART-DS/v1.0/2018/SFO_xfmr/P1R/profiles/res_kvar_3633_pu.csv)

New Loadshape.res_kw_8740_pu npts= 35040 interval=0.25 mult = (file=/projects/distcosts3/SMART-DS/v1.0/2018/SFO_xfmr/P1R/profiles/res_kw_8740_pu.csv) qmult = (file=/projects/distcosts3/SMART-DS/v1.0/2018/SFO_xfmr/P1R/profiles/res_kvar_8740_pu.csv)

New Loadshape.res_kw_9267_pu npts= 35040 interval=0.25 mult = (file=/projects/distcosts3/SMART-DS/v1.0/2018/SFO_xfmr/P1R/profiles/res_kw_9267_pu.csv) qmult = (file=/projects/distcosts3/SMART-DS/v1.0/2018/SFO_xfmr/P1R/profiles/res_kvar_9267_pu.csv)

New Loadshape.res_kw_10119_pu npts= 35040 interval=0.25 mult = (file=/projects/distcosts3/SMART-DS/v1.0/2018/SFO_xfmr/P1R/profiles/res_kw_10119_pu.csv) qmult = (file=/projects/distcosts3/SMART-DS/v1.0/2018/SFO_xfmr/P1R/profiles/res_kvar_10119_pu.csv)

New Loadshape.res_kw_14158_pu npts= 35040 interval=0.25 mult = (file=/projects/distcosts3/SMART-DS/v1.0/2018/SFO_xfmr/P1R/profiles/res_kw_14158_pu.csv) qmult = (file=/projects/distcosts3/SMART-DS/v1.0/2018/SFO_xfmr/P1R/profiles/res_kvar_14158_pu.csv)

New Loadshape.res_kw_678_pu npts= 35040 interval=0.25 mult = (file=/projects/distcosts3/SMART-DS/v1.0/2018/SFO_xfmr/P1R/profiles/res_kw_678_pu.csv) qmult = (file=/projects/distcosts3/SMART-DS/v1.0/2018/SFO_xfmr/P1R/profiles/res_kvar_678_pu.csv)

New Loadshape.res_kw_4862_pu npts= 35040 interval=0.25 mult = (file=/projects/distcosts3/SMART-DS/v1.0/2018/SFO_xfmr/P1R/profiles/res_kw_4862_pu.csv) qmult = (file=/projects/distcosts3/SMART-DS/v1.0/2018/SFO_xfmr/P1R/profiles/res_kvar_4862_pu.csv)

New Loadshape.res_kw_13704_pu npts= 35040 interval=0.25 mult = (file=/projects/distcosts3/SMART-DS/v1.0/2018/SFO_xfmr/P1R/profiles/res_kw_13704_pu.csv) qmult = (file=/projects/distcosts3/SMART-DS/v1.0/2018/SFO_xfmr/P1R/profiles/res_kvar_13704_pu.csv)

New Loadshape.res_kw_8723_pu npts= 35040 interval=0.25 mult = (file=/projects/distcosts3/SMART-DS/v1.0/2018/SFO_xfmr/P1R/profiles/res_kw_8723_pu.csv) qmult = (file=/projects/distcosts3/SMART-DS/v1.0/2018/SFO_xfmr/P1R/profiles/res_kvar_8723_pu.csv)

New Loadshape.res_kw_277_pu npts= 35040 interval=0.25 mult = (file=/projects/distcosts3/SMART-DS/v1.0/2018/SFO_xfmr/P1R/profiles/res_kw_277_pu.csv) qmult = (file=/projects/distcosts3/SMART-DS/v1.0/2018/SFO_xfmr/P1R/profiles/res_kvar_277_pu.csv)

New Loadshape.res_kw_12125_pu npts= 35040 interval=0.25 mult = (file=/projects/distcosts3/SMART-DS/v1.0/2018/SFO_xfmr/P1R/profiles/res_kw_12125_pu.csv) qmult = (file=/projects/distcosts3/SMART-DS/v1.0/2018/SFO_xfmr/P1R/profiles/res_kvar_12125_pu.csv)

New Loadshape.res_kw_10107_pu npts= 35040 interval=0.25 mult = (file=/projects/distcosts3/SMART-DS/v1.0/2018/SFO_xfmr/P1R/profiles/res_kw_10107_pu.csv) qmult = (file=/projects/distcosts3/SMART-DS/v1.0/2018/SFO_xfmr/P1R/profiles/res_kvar_10107_pu.csv)

New Loadshape.res_kw_8820_pu npts= 35040 interval=0.25 mult = (file=/projects/distcosts3/SMART-DS/v1.0/2018/SFO_xfmr/P1R/profiles/res_kw_8820_pu.csv) qmult = (file=/projects/distcosts3/SMART-DS/v1.0/2018/SFO_xfmr/P1R/profiles/res_kvar_8820_pu.csv)

New Loadshape.res_kw_11220_pu npts= 35040 interval=0.25 mult = (file=/projects/distcosts3/SMART-DS/v1.0/2018/SFO_xfmr/P1R/profiles/res_kw_11220_pu.csv) qmult = (file=/projects/distcosts3/SMART-DS/v1.0/2018/SFO_xfmr/P1R/profiles/res_kvar_11220_pu.csv)

New Loadshape.res_kw_1305_pu npts= 35040 interval=0.25 mult = (file=/projects/distcosts3/SMART-DS/v1.0/2018/SFO_xfmr/P1R/profiles/res_kw_1305_pu.csv) qmult = (file=/projects/distcosts3/SMART-DS/v1.0/2018/SFO_xfmr/P1R/profiles/res_kvar_1305_pu.csv)

New Loadshape.res_kw_5620_pu npts= 35040 interval=0.25 mult = (file=/projects/distcosts3/SMART-DS/v1.0/2018/SFO_xfmr/P1R/profiles/res_kw_5620_pu.csv) qmult = (file=/projects/distcosts3/SMART-DS/v1.0/2018/SFO_xfmr/P1R/profiles/res_kvar_5620_pu.csv)

New Loadshape.res_kw_10051_pu npts= 35040 interval=0.25 mult = (file=/projects/distcosts3/SMART-DS/v1.0/2018/SFO_xfmr/P1R/profiles/res_kw_10051_pu.csv) qmult = (file=/projects/distcosts3/SMART-DS/v1.0/2018/SFO_xfmr/P1R/profiles/res_kvar_10051_pu.csv)

New Loadshape.res_kw_9391_pu npts= 35040 interval=0.25 mult = (file=/projects/distcosts3/SMART-DS/v1.0/2018/SFO_xfmr/P1R/profiles/res_kw_9391_pu.csv) qmult = (file=/projects/distcosts3/SMART-DS/v1.0/2018/SFO_xfmr/P1R/profiles/res_kvar_9391_pu.csv)

New Loadshape.res_kw_13047_pu npts= 35040 interval=0.25 mult = (file=/projects/distcosts3/SMART-DS/v1.0/2018/SFO_xfmr/P1R/profiles/res_kw_13047_pu.csv) qmult = (file=/projects/distcosts3/SMART-DS/v1.0/2018/SFO_xfmr/P1R/profiles/res_kvar_13047_pu.csv)

New Loadshape.res_kw_9982_pu npts= 35040 interval=0.25 mult = (file=/projects/distcosts3/SMART-DS/v1.0/2018/SFO_xfmr/P1R/profiles/res_kw_9982_pu.csv) qmult = (file=/projects/distcosts3/SMART-DS/v1.0/2018/SFO_xfmr/P1R/profiles/res_kvar_9982_pu.csv)

New Loadshape.res_kw_5785_pu npts= 35040 interval=0.25 mult = (file=/projects/distcosts3/SMART-DS/v1.0/2018/SFO_xfmr/P1R/profiles/res_kw_5785_pu.csv) qmult = (file=/projects/distcosts3/SMART-DS/v1.0/2018/SFO_xfmr/P1R/profiles/res_kvar_5785_pu.csv)

New Loadshape.res_kw_3477_pu npts= 35040 interval=0.25 mult = (file=/projects/distcosts3/SMART-DS/v1.0/2018/SFO_xfmr/P1R/profiles/res_kw_3477_pu.csv) qmult = (file=/projects/distcosts3/SMART-DS/v1.0/2018/SFO_xfmr/P1R/profiles/res_kvar_3477_pu.csv)

New Loadshape.res_kw_5859_pu npts= 35040 interval=0.25 mult = (file=/projects/distcosts3/SMART-DS/v1.0/2018/SFO_xfmr/P1R/profiles/res_kw_5859_pu.csv) qmult = (file=/projects/distcosts3/SMART-DS/v1.0/2018/SFO_xfmr/P1R/profiles/res_kvar_5859_pu.csv)

New Loadshape.res_kw_7050_pu npts= 35040 interval=0.25 mult = (file=/projects/distcosts3/SMART-DS/v1.0/2018/SFO_xfmr/P1R/profiles/res_kw_7050_pu.csv) qmult = (file=/projects/distcosts3/SMART-DS/v1.0/2018/SFO_xfmr/P1R/profiles/res_kvar_7050_pu.csv)

New Loadshape.res_kw_694_pu npts= 35040 interval=0.25 mult = (file=/projects/distcosts3/SMART-DS/v1.0/2018/SFO_xfmr/P1R/profiles/res_kw_694_pu.csv) qmult = (file=/projects/distcosts3/SMART-DS/v1.0/2018/SFO_xfmr/P1R/profiles/res_kvar_694_pu.csv)

New Loadshape.res_kw_2065_pu npts= 35040 interval=0.25 mult = (file=/projects/distcosts3/SMART-DS/v1.0/2018/SFO_xfmr/P1R/profiles/res_kw_2065_pu.csv) qmult = (file=/projects/distcosts3/SMART-DS/v1.0/2018/SFO_xfmr/P1R/profiles/res_kvar_2065_pu.csv)

New Loadshape.res_kw_10201_pu npts= 35040 interval=0.25 mult = (file=/projects/distcosts3/SMART-DS/v1.0/2018/SFO_xfmr/P1R/profiles/res_kw_10201_pu.csv) qmult = (file=/projects/distcosts3/SMART-DS/v1.0/2018/SFO_xfmr/P1R/profiles/res_kvar_10201_pu.csv)

New Loadshape.res_kw_6057_pu npts= 35040 interval=0.25 mult = (file=/projects/distcosts3/SMART-DS/v1.0/2018/SFO_xfmr/P1R/profiles/res_kw_6057_pu.csv) qmult = (file=/projects/distcosts3/SMART-DS/v1.0/2018/SFO_xfmr/P1R/profiles/res_kvar_6057_pu.csv)

New Loadshape.res_kw_10142_pu npts= 35040 interval=0.25 mult = (file=/projects/distcosts3/SMART-DS/v1.0/2018/SFO_xfmr/P1R/profiles/res_kw_10142_pu.csv) qmult = (file=/projects/distcosts3/SMART-DS/v1.0/2018/SFO_xfmr/P1R/profiles/res_kvar_10142_pu.csv)

New Loadshape.res_kw_1753_pu npts= 35040 interval=0.25 mult = (file=/projects/distcosts3/SMART-DS/v1.0/2018/SFO_xfmr/P1R/profiles/res_kw_1753_pu.csv) qmult = (file=/projects/distcosts3/SMART-DS/v1.0/2018/SFO_xfmr/P1R/profiles/res_kvar_1753_pu.csv)

New Loadshape.res_kw_1263_pu npts= 35040 interval=0.25 mult = (file=/projects/distcosts3/SMART-DS/v1.0/2018/SFO_xfmr/P1R/profiles/res_kw_1263_pu.csv) qmult = (file=/projects/distcosts3/SMART-DS/v1.0/2018/SFO_xfmr/P1R/profiles/res_kvar_1263_pu.csv)

New Loadshape.res_kw_4148_pu npts= 35040 interval=0.25 mult = (file=/projects/distcosts3/SMART-DS/v1.0/2018/SFO_xfmr/P1R/profiles/res_kw_4148_pu.csv) qmult = (file=/projects/distcosts3/SMART-DS/v1.0/2018/SFO_xfmr/P1R/profiles/res_kvar_4148_pu.csv)

New Loadshape.res_kw_9042_pu npts= 35040 interval=0.25 mult = (file=/projects/distcosts3/SMART-DS/v1.0/2018/SFO_xfmr/P1R/profiles/res_kw_9042_pu.csv) qmult = (file=/projects/distcosts3/SMART-DS/v1.0/2018/SFO_xfmr/P1R/profiles/res_kvar_9042_pu.csv)

New Loadshape.res_kw_9711_pu npts= 35040 interval=0.25 mult = (file=/projects/distcosts3/SMART-DS/v1.0/2018/SFO_xfmr/P1R/profiles/res_kw_9711_pu.csv) qmult = (file=/projects/distcosts3/SMART-DS/v1.0/2018/SFO_xfmr/P1R/profiles/res_kvar_9711_pu.csv)

New Loadshape.res_kw_13524_pu npts= 35040 interval=0.25 mult = (file=/projects/distcosts3/SMART-DS/v1.0/2018/SFO_xfmr/P1R/profiles/res_kw_13524_pu.csv) qmult = (file=/projects/distcosts3/SMART-DS/v1.0/2018/SFO_xfmr/P1R/profiles/res_kvar_13524_pu.csv)

New Loadshape.res_kw_11545_pu npts= 35040 interval=0.25 mult = (file=/projects/distcosts3/SMART-DS/v1.0/2018/SFO_xfmr/P1R/profiles/res_kw_11545_pu.csv) qmult = (file=/projects/distcosts3/SMART-DS/v1.0/2018/SFO_xfmr/P1R/profiles/res_kvar_11545_pu.csv)

New Loadshape.res_kw_6273_pu npts= 35040 interval=0.25 mult = (file=/projects/distcosts3/SMART-DS/v1.0/2018/SFO_xfmr/P1R/profiles/res_kw_6273_pu.csv) qmult = (file=/projects/distcosts3/SMART-DS/v1.0/2018/SFO_xfmr/P1R/profiles/res_kvar_6273_pu.csv)

New Loadshape.res_kw_9369_pu npts= 35040 interval=0.25 mult = (file=/projects/distcosts3/SMART-DS/v1.0/2018/SFO_xfmr/P1R/profiles/res_kw_9369_pu.csv) qmult = (file=/projects/distcosts3/SMART-DS/v1.0/2018/SFO_xfmr/P1R/profiles/res_kvar_9369_pu.csv)

New Loadshape.res_kw_9280_pu npts= 35040 interval=0.25 mult = (file=/projects/distcosts3/SMART-DS/v1.0/2018/SFO_xfmr/P1R/profiles/res_kw_9280_pu.csv) qmult = (file=/projects/distcosts3/SMART-DS/v1.0/2018/SFO_xfmr/P1R/profiles/res_kvar_9280_pu.csv)

New Loadshape.res_kw_6726_pu npts= 35040 interval=0.25 mult = (file=/projects/distcosts3/SMART-DS/v1.0/2018/SFO_xfmr/P1R/profiles/res_kw_6726_pu.csv) qmult = (file=/projects/distcosts3/SMART-DS/v1.0/2018/SFO_xfmr/P1R/profiles/res_kvar_6726_pu.csv)

New Loadshape.res_kw_8743_pu npts= 35040 interval=0.25 mult = (file=/projects/distcosts3/SMART-DS/v1.0/2018/SFO_xfmr/P1R/profiles/res_kw_8743_pu.csv) qmult = (file=/projects/distcosts3/SMART-DS/v1.0/2018/SFO_xfmr/P1R/profiles/res_kvar_8743_pu.csv)

New Loadshape.res_kw_13597_pu npts= 35040 interval=0.25 mult = (file=/projects/distcosts3/SMART-DS/v1.0/2018/SFO_xfmr/P1R/profiles/res_kw_13597_pu.csv) qmult = (file=/projects/distcosts3/SMART-DS/v1.0/2018/SFO_xfmr/P1R/profiles/res_kvar_13597_pu.csv)

New Loadshape.res_kw_5528_pu npts= 35040 interval=0.25 mult = (file=/projects/distcosts3/SMART-DS/v1.0/2018/SFO_xfmr/P1R/profiles/res_kw_5528_pu.csv) qmult = (file=/projects/distcosts3/SMART-DS/v1.0/2018/SFO_xfmr/P1R/profiles/res_kvar_5528_pu.csv)

New Loadshape.res_kw_3245_pu npts= 35040 interval=0.25 mult = (file=/projects/distcosts3/SMART-DS/v1.0/2018/SFO_xfmr/P1R/profiles/res_kw_3245_pu.csv) qmult = (file=/projects/distcosts3/SMART-DS/v1.0/2018/SFO_xfmr/P1R/profiles/res_kvar_3245_pu.csv)

New Loadshape.res_kw_7686_pu npts= 35040 interval=0.25 mult = (file=/projects/distcosts3/SMART-DS/v1.0/2018/SFO_xfmr/P1R/profiles/res_kw_7686_pu.csv) qmult = (file=/projects/distcosts3/SMART-DS/v1.0/2018/SFO_xfmr/P1R/profiles/res_kvar_7686_pu.csv)

New Loadshape.res_kw_1477_pu npts= 35040 interval=0.25 mult = (file=/projects/distcosts3/SMART-DS/v1.0/2018/SFO_xfmr/P1R/profiles/res_kw_1477_pu.csv) qmult = (file=/projects/distcosts3/SMART-DS/v1.0/2018/SFO_xfmr/P1R/profiles/res_kvar_1477_pu.csv)

New Loadshape.res_kw_47_pu npts= 35040 interval=0.25 mult = (file=/projects/distcosts3/SMART-DS/v1.0/2018/SFO_xfmr/P1R/profiles/res_kw_47_pu.csv) qmult = (file=/projects/distcosts3/SMART-DS/v1.0/2018/SFO_xfmr/P1R/profiles/res_kvar_47_pu.csv)

New Loadshape.res_kw_5094_pu npts= 35040 interval=0.25 mult = (file=/projects/distcosts3/SMART-DS/v1.0/2018/SFO_xfmr/P1R/profiles/res_kw_5094_pu.csv) qmult = (file=/projects/distcosts3/SMART-DS/v1.0/2018/SFO_xfmr/P1R/profiles/res_kvar_5094_pu.csv)

New Loadshape.res_kw_8224_pu npts= 35040 interval=0.25 mult = (file=/projects/distcosts3/SMART-DS/v1.0/2018/SFO_xfmr/P1R/profiles/res_kw_8224_pu.csv) qmult = (file=/projects/distcosts3/SMART-DS/v1.0/2018/SFO_xfmr/P1R/profiles/res_kvar_8224_pu.csv)

New Loadshape.res_kw_5633_pu npts= 35040 interval=0.25 mult = (file=/projects/distcosts3/SMART-DS/v1.0/2018/SFO_xfmr/P1R/profiles/res_kw_5633_pu.csv) qmult = (file=/projects/distcosts3/SMART-DS/v1.0/2018/SFO_xfmr/P1R/profiles/res_kvar_5633_pu.csv)

New Loadshape.res_kw_5939_pu npts= 35040 interval=0.25 mult = (file=/projects/distcosts3/SMART-DS/v1.0/2018/SFO_xfmr/P1R/profiles/res_kw_5939_pu.csv) qmult = (file=/projects/distcosts3/SMART-DS/v1.0/2018/SFO_xfmr/P1R/profiles/res_kvar_5939_pu.csv)

New Loadshape.res_kw_74_pu npts= 35040 interval=0.25 mult = (file=/projects/distcosts3/SMART-DS/v1.0/2018/SFO_xfmr/P1R/profiles/res_kw_74_pu.csv) qmult = (file=/projects/distcosts3/SMART-DS/v1.0/2018/SFO_xfmr/P1R/profiles/res_kvar_74_pu.csv)

New Loadshape.res_kw_13911_pu npts= 35040 interval=0.25 mult = (file=/projects/distcosts3/SMART-DS/v1.0/2018/SFO_xfmr/P1R/profiles/res_kw_13911_pu.csv) qmult = (file=/projects/distcosts3/SMART-DS/v1.0/2018/SFO_xfmr/P1R/profiles/res_kvar_13911_pu.csv)

New Loadshape.res_kw_2763_pu npts= 35040 interval=0.25 mult = (file=/projects/distcosts3/SMART-DS/v1.0/2018/SFO_xfmr/P1R/profiles/res_kw_2763_pu.csv) qmult = (file=/projects/distcosts3/SMART-DS/v1.0/2018/SFO_xfmr/P1R/profiles/res_kvar_2763_pu.csv)

New Loadshape.res_kw_3484_pu npts= 35040 interval=0.25 mult = (file=/projects/distcosts3/SMART-DS/v1.0/2018/SFO_xfmr/P1R/profiles/res_kw_3484_pu.csv) qmult = (file=/projects/distcosts3/SMART-DS/v1.0/2018/SFO_xfmr/P1R/profiles/res_kvar_3484_pu.csv)

New Loadshape.res_kw_42_pu npts= 35040 interval=0.25 mult = (file=/projects/distcosts3/SMART-DS/v1.0/2018/SFO_xfmr/P1R/profiles/res_kw_42_pu.csv) qmult = (file=/projects/distcosts3/SMART-DS/v1.0/2018/SFO_xfmr/P1R/profiles/res_kvar_42_pu.csv)

New Loadshape.res_kw_6425_pu npts= 35040 interval=0.25 mult = (file=/projects/distcosts3/SMART-DS/v1.0/2018/SFO_xfmr/P1R/profiles/res_kw_6425_pu.csv) qmult = (file=/projects/distcosts3/SMART-DS/v1.0/2018/SFO_xfmr/P1R/profiles/res_kvar_6425_pu.csv)

New Loadshape.res_kw_1834_pu npts= 35040 interval=0.25 mult = (file=/projects/distcosts3/SMART-DS/v1.0/2018/SFO_xfmr/P1R/profiles/res_kw_1834_pu.csv) qmult = (file=/projects/distcosts3/SMART-DS/v1.0/2018/SFO_xfmr/P1R/profiles/res_kvar_1834_pu.csv)

New Loadshape.res_kw_9935_pu npts= 35040 interval=0.25 mult = (file=/projects/distcosts3/SMART-DS/v1.0/2018/SFO_xfmr/P1R/profiles/res_kw_9935_pu.csv) qmult = (file=/projects/distcosts3/SMART-DS/v1.0/2018/SFO_xfmr/P1R/profiles/res_kvar_9935_pu.csv)

New Loadshape.res_kw_13148_pu npts= 35040 interval=0.25 mult = (file=/projects/distcosts3/SMART-DS/v1.0/2018/SFO_xfmr/P1R/profiles/res_kw_13148_pu.csv) qmult = (file=/projects/distcosts3/SMART-DS/v1.0/2018/SFO_xfmr/P1R/profiles/res_kvar_13148_pu.csv)

New Loadshape.res_kw_8020_pu npts= 35040 interval=0.25 mult = (file=/projects/distcosts3/SMART-DS/v1.0/2018/SFO_xfmr/P1R/profiles/res_kw_8020_pu.csv) qmult = (file=/projects/distcosts3/SMART-DS/v1.0/2018/SFO_xfmr/P1R/profiles/res_kvar_8020_pu.csv)

New Loadshape.res_kw_1527_pu npts= 35040 interval=0.25 mult = (file=/projects/distcosts3/SMART-DS/v1.0/2018/SFO_xfmr/P1R/profiles/res_kw_1527_pu.csv) qmult = (file=/projects/distcosts3/SMART-DS/v1.0/2018/SFO_xfmr/P1R/profiles/res_kvar_1527_pu.csv)

New Loadshape.res_kw_113_pu npts= 35040 interval=0.25 mult = (file=/projects/distcosts3/SMART-DS/v1.0/2018/SFO_xfmr/P1R/profiles/res_kw_113_pu.csv) qmult = (file=/projects/distcosts3/SMART-DS/v1.0/2018/SFO_xfmr/P1R/profiles/res_kvar_113_pu.csv)

New Loadshape.res_kw_13795_pu npts= 35040 interval=0.25 mult = (file=/projects/distcosts3/SMART-DS/v1.0/2018/SFO_xfmr/P1R/profiles/res_kw_13795_pu.csv) qmult = (file=/projects/distcosts3/SMART-DS/v1.0/2018/SFO_xfmr/P1R/profiles/res_kvar_13795_pu.csv)

New Loadshape.res_kw_9009_pu npts= 35040 interval=0.25 mult = (file=/projects/distcosts3/SMART-DS/v1.0/2018/SFO_xfmr/P1R/profiles/res_kw_9009_pu.csv) qmult = (file=/projects/distcosts3/SMART-DS/v1.0/2018/SFO_xfmr/P1R/profiles/res_kvar_9009_pu.csv)

New Loadshape.res_kw_12076_pu npts= 35040 interval=0.25 mult = (file=/projects/distcosts3/SMART-DS/v1.0/2018/SFO_xfmr/P1R/profiles/res_kw_12076_pu.csv) qmult = (file=/projects/distcosts3/SMART-DS/v1.0/2018/SFO_xfmr/P1R/profiles/res_kvar_12076_pu.csv)

New Loadshape.res_kw_11370_pu npts= 35040 interval=0.25 mult = (file=/projects/distcosts3/SMART-DS/v1.0/2018/SFO_xfmr/P1R/profiles/res_kw_11370_pu.csv) qmult = (file=/projects/distcosts3/SMART-DS/v1.0/2018/SFO_xfmr/P1R/profiles/res_kvar_11370_pu.csv)

New Loadshape.res_kw_3959_pu npts= 35040 interval=0.25 mult = (file=/projects/distcosts3/SMART-DS/v1.0/2018/SFO_xfmr/P1R/profiles/res_kw_3959_pu.csv) qmult = (file=/projects/distcosts3/SMART-DS/v1.0/2018/SFO_xfmr/P1R/profiles/res_kvar_3959_pu.csv)

New Loadshape.res_kw_8284_pu npts= 35040 interval=0.25 mult = (file=/projects/distcosts3/SMART-DS/v1.0/2018/SFO_xfmr/P1R/profiles/res_kw_8284_pu.csv) qmult = (file=/projects/distcosts3/SMART-DS/v1.0/2018/SFO_xfmr/P1R/profiles/res_kvar_8284_pu.csv)

New Loadshape.res_kw_7192_pu npts= 35040 interval=0.25 mult = (file=/projects/distcosts3/SMART-DS/v1.0/2018/SFO_xfmr/P1R/profiles/res_kw_7192_pu.csv) qmult = (file=/projects/distcosts3/SMART-DS/v1.0/2018/SFO_xfmr/P1R/profiles/res_kvar_7192_pu.csv)

New Loadshape.res_kw_8491_pu npts= 35040 interval=0.25 mult = (file=/projects/distcosts3/SMART-DS/v1.0/2018/SFO_xfmr/P1R/profiles/res_kw_8491_pu.csv) qmult = (file=/projects/distcosts3/SMART-DS/v1.0/2018/SFO_xfmr/P1R/profiles/res_kvar_8491_pu.csv)

New Loadshape.res_kw_4764_pu npts= 35040 interval=0.25 mult = (file=/projects/distcosts3/SMART-DS/v1.0/2018/SFO_xfmr/P1R/profiles/res_kw_4764_pu.csv) qmult = (file=/projects/distcosts3/SMART-DS/v1.0/2018/SFO_xfmr/P1R/profiles/res_kvar_4764_pu.csv)

New Loadshape.res_kw_1704_pu npts= 35040 interval=0.25 mult = (file=/projects/distcosts3/SMART-DS/v1.0/2018/SFO_xfmr/P1R/profiles/res_kw_1704_pu.csv) qmult = (file=/projects/distcosts3/SMART-DS/v1.0/2018/SFO_xfmr/P1R/profiles/res_kvar_1704_pu.csv)

New Loadshape.res_kw_13759_pu npts= 35040 interval=0.25 mult = (file=/projects/distcosts3/SMART-DS/v1.0/2018/SFO_xfmr/P1R/profiles/res_kw_13759_pu.csv) qmult = (file=/projects/distcosts3/SMART-DS/v1.0/2018/SFO_xfmr/P1R/profiles/res_kvar_13759_pu.csv)

New Loadshape.res_kw_8986_pu npts= 35040 interval=0.25 mult = (file=/projects/distcosts3/SMART-DS/v1.0/2018/SFO_xfmr/P1R/profiles/res_kw_8986_pu.csv) qmult = (file=/projects/distcosts3/SMART-DS/v1.0/2018/SFO_xfmr/P1R/profiles/res_kvar_8986_pu.csv)

New Loadshape.res_kw_1982_pu npts= 35040 interval=0.25 mult = (file=/projects/distcosts3/SMART-DS/v1.0/2018/SFO_xfmr/P1R/profiles/res_kw_1982_pu.csv) qmult = (file=/projects/distcosts3/SMART-DS/v1.0/2018/SFO_xfmr/P1R/profiles/res_kvar_1982_pu.csv)

New Loadshape.res_kw_7313_pu npts= 35040 interval=0.25 mult = (file=/projects/distcosts3/SMART-DS/v1.0/2018/SFO_xfmr/P1R/profiles/res_kw_7313_pu.csv) qmult = (file=/projects/distcosts3/SMART-DS/v1.0/2018/SFO_xfmr/P1R/profiles/res_kvar_7313_pu.csv)

New Loadshape.res_kw_1243_pu npts= 35040 interval=0.25 mult = (file=/projects/distcosts3/SMART-DS/v1.0/2018/SFO_xfmr/P1R/profiles/res_kw_1243_pu.csv) qmult = (file=/projects/distcosts3/SMART-DS/v1.0/2018/SFO_xfmr/P1R/profiles/res_kvar_1243_pu.csv)

New Loadshape.res_kw_13874_pu npts= 35040 interval=0.25 mult = (file=/projects/distcosts3/SMART-DS/v1.0/2018/SFO_xfmr/P1R/profiles/res_kw_13874_pu.csv) qmult = (file=/projects/distcosts3/SMART-DS/v1.0/2018/SFO_xfmr/P1R/profiles/res_kvar_13874_pu.csv)

New Loadshape.res_kw_8052_pu npts= 35040 interval=0.25 mult = (file=/projects/distcosts3/SMART-DS/v1.0/2018/SFO_xfmr/P1R/profiles/res_kw_8052_pu.csv) qmult = (file=/projects/distcosts3/SMART-DS/v1.0/2018/SFO_xfmr/P1R/profiles/res_kvar_8052_pu.csv)

New Loadshape.res_kw_8366_pu npts= 35040 interval=0.25 mult = (file=/projects/distcosts3/SMART-DS/v1.0/2018/SFO_xfmr/P1R/profiles/res_kw_8366_pu.csv) qmult = (file=/projects/distcosts3/SMART-DS/v1.0/2018/SFO_xfmr/P1R/profiles/res_kvar_8366_pu.csv)

New Loadshape.res_kw_7511_pu npts= 35040 interval=0.25 mult = (file=/projects/distcosts3/SMART-DS/v1.0/2018/SFO_xfmr/P1R/profiles/res_kw_7511_pu.csv) qmult = (file=/projects/distcosts3/SMART-DS/v1.0/2018/SFO_xfmr/P1R/profiles/res_kvar_7511_pu.csv)

New Loadshape.res_kw_4032_pu npts= 35040 interval=0.25 mult = (file=/projects/distcosts3/SMART-DS/v1.0/2018/SFO_xfmr/P1R/profiles/res_kw_4032_pu.csv) qmult = (file=/projects/distcosts3/SMART-DS/v1.0/2018/SFO_xfmr/P1R/profiles/res_kvar_4032_pu.csv)

New Loadshape.res_kw_11008_pu npts= 35040 interval=0.25 mult = (file=/projects/distcosts3/SMART-DS/v1.0/2018/SFO_xfmr/P1R/profiles/res_kw_11008_pu.csv) qmult = (file=/projects/distcosts3/SMART-DS/v1.0/2018/SFO_xfmr/P1R/profiles/res_kvar_11008_pu.csv)

New Loadshape.res_kw_11272_pu npts= 35040 interval=0.25 mult = (file=/projects/distcosts3/SMART-DS/v1.0/2018/SFO_xfmr/P1R/profiles/res_kw_11272_pu.csv) qmult = (file=/projects/distcosts3/SMART-DS/v1.0/2018/SFO_xfmr/P1R/profiles/res_kvar_11272_pu.csv)

New Loadshape.res_kw_7299_pu npts= 35040 interval=0.25 mult = (file=/projects/distcosts3/SMART-DS/v1.0/2018/SFO_xfmr/P1R/profiles/res_kw_7299_pu.csv) qmult = (file=/projects/distcosts3/SMART-DS/v1.0/2018/SFO_xfmr/P1R/profiles/res_kvar_7299_pu.csv)

New Loadshape.res_kw_10639_pu npts= 35040 interval=0.25 mult = (file=/projects/distcosts3/SMART-DS/v1.0/2018/SFO_xfmr/P1R/profiles/res_kw_10639_pu.csv) qmult = (file=/projects/distcosts3/SMART-DS/v1.0/2018/SFO_xfmr/P1R/profiles/res_kvar_10639_pu.csv)

New Loadshape.res_kw_7073_pu npts= 35040 interval=0.25 mult = (file=/projects/distcosts3/SMART-DS/v1.0/2018/SFO_xfmr/P1R/profiles/res_kw_7073_pu.csv) qmult = (file=/projects/distcosts3/SMART-DS/v1.0/2018/SFO_xfmr/P1R/profiles/res_kvar_7073_pu.csv)

New Loadshape.res_kw_1730_pu npts= 35040 interval=0.25 mult = (file=/projects/distcosts3/SMART-DS/v1.0/2018/SFO_xfmr/P1R/profiles/res_kw_1730_pu.csv) qmult = (file=/projects/distcosts3/SMART-DS/v1.0/2018/SFO_xfmr/P1R/profiles/res_kvar_1730_pu.csv)

New Loadshape.res_kw_10867_pu npts= 35040 interval=0.25 mult = (file=/projects/distcosts3/SMART-DS/v1.0/2018/SFO_xfmr/P1R/profiles/res_kw_10867_pu.csv) qmult = (file=/projects/distcosts3/SMART-DS/v1.0/2018/SFO_xfmr/P1R/profiles/res_kvar_10867_pu.csv)

New Loadshape.res_kw_5892_pu npts= 35040 interval=0.25 mult = (file=/projects/distcosts3/SMART-DS/v1.0/2018/SFO_xfmr/P1R/profiles/res_kw_5892_pu.csv) qmult = (file=/projects/distcosts3/SMART-DS/v1.0/2018/SFO_xfmr/P1R/profiles/res_kvar_5892_pu.csv)

New Loadshape.res_kw_7307_pu npts= 35040 interval=0.25 mult = (file=/projects/distcosts3/SMART-DS/v1.0/2018/SFO_xfmr/P1R/profiles/res_kw_7307_pu.csv) qmult = (file=/projects/distcosts3/SMART-DS/v1.0/2018/SFO_xfmr/P1R/profiles/res_kvar_7307_pu.csv)

New Loadshape.res_kw_10750_pu npts= 35040 interval=0.25 mult = (file=/projects/distcosts3/SMART-DS/v1.0/2018/SFO_xfmr/P1R/profiles/res_kw_10750_pu.csv) qmult = (file=/projects/distcosts3/SMART-DS/v1.0/2018/SFO_xfmr/P1R/profiles/res_kvar_10750_pu.csv)
