New Loadshape.53401_37.80_-122.57_2018 npts= 35040 interval=0.25 mult = (file=/projects/distcosts3/SMART-DS/v1.0/2018/SFO_xfmr/pv-profiles/53401_37.80_-122.57_2018.csv)
New Loadshape.54523_37.78_-122.53_2018 npts= 35040 interval=0.25 mult = (file=/projects/distcosts3/SMART-DS/v1.0/2018/SFO_xfmr/pv-profiles/54523_37.78_-122.53_2018.csv)
New Loadshape.54522_37.80_-122.53_2018 npts= 35040 interval=0.25 mult = (file=/projects/distcosts3/SMART-DS/v1.0/2018/SFO_xfmr/pv-profiles/54522_37.80_-122.53_2018.csv)
New Loadshape.53406_37.70_-122.57_2018 npts= 35040 interval=0.25 mult = (file=/projects/distcosts3/SMART-DS/v1.0/2018/SFO_xfmr/pv-profiles/53406_37.70_-122.57_2018.csv)
New Loadshape.55092_37.70_-122.51_2018 npts= 35040 interval=0.25 mult = (file=/projects/distcosts3/SMART-DS/v1.0/2018/SFO_xfmr/pv-profiles/55092_37.70_-122.51_2018.csv)
New Loadshape.58492_37.76_-122.39_2018 npts= 35040 interval=0.25 mult = (file=/projects/distcosts3/SMART-DS/v1.0/2018/SFO_xfmr/pv-profiles/58492_37.76_-122.39_2018.csv)
New Loadshape.59674_37.74_-122.35_2018 npts= 35040 interval=0.25 mult = (file=/projects/distcosts3/SMART-DS/v1.0/2018/SFO_xfmr/pv-profiles/59674_37.74_-122.35_2018.csv)
New Loadshape.57341_37.78_-122.43_2018 npts= 35040 interval=0.25 mult = (file=/projects/distcosts3/SMART-DS/v1.0/2018/SFO_xfmr/pv-profiles/57341_37.78_-122.43_2018.csv)
New Loadshape.54526_37.72_-122.53_2018 npts= 35040 interval=0.25 mult = (file=/projects/distcosts3/SMART-DS/v1.0/2018/SFO_xfmr/pv-profiles/54526_37.72_-122.53_2018.csv)
New Loadshape.60274_37.72_-122.33_2018 npts= 35040 interval=0.25 mult = (file=/projects/distcosts3/SMART-DS/v1.0/2018/SFO_xfmr/pv-profiles/60274_37.72_-122.33_2018.csv)
New Loadshape.60879_37.72_-122.31_2018 npts= 35040 interval=0.25 mult = (file=/projects/distcosts3/SMART-DS/v1.0/2018/SFO_xfmr/pv-profiles/60879_37.72_-122.31_2018.csv)
New Loadshape.55652_37.76_-122.49_2018 npts= 35040 interval=0.25 mult = (file=/projects/distcosts3/SMART-DS/v1.0/2018/SFO_xfmr/pv-profiles/55652_37.76_-122.49_2018.csv)
New Loadshape.56216_37.72_-122.47_2018 npts= 35040 interval=0.25 mult = (file=/projects/distcosts3/SMART-DS/v1.0/2018/SFO_xfmr/pv-profiles/56216_37.72_-122.47_2018.csv)
New Loadshape.58493_37.74_-122.39_2018 npts= 35040 interval=0.25 mult = (file=/projects/distcosts3/SMART-DS/v1.0/2018/SFO_xfmr/pv-profiles/58493_37.74_-122.39_2018.csv)
New Loadshape.56217_37.70_-122.47_2018 npts= 35040 interval=0.25 mult = (file=/projects/distcosts3/SMART-DS/v1.0/2018/SFO_xfmr/pv-profiles/56217_37.70_-122.47_2018.csv)
New Loadshape.57344_37.72_-122.43_2018 npts= 35040 interval=0.25 mult = (file=/projects/distcosts3/SMART-DS/v1.0/2018/SFO_xfmr/pv-profiles/57344_37.72_-122.43_2018.csv)
New Loadshape.59671_37.80_-122.35_2018 npts= 35040 interval=0.25 mult = (file=/projects/distcosts3/SMART-DS/v1.0/2018/SFO_xfmr/pv-profiles/59671_37.80_-122.35_2018.csv)
New Loadshape.59675_37.72_-122.35_2018 npts= 35040 interval=0.25 mult = (file=/projects/distcosts3/SMART-DS/v1.0/2018/SFO_xfmr/pv-profiles/59675_37.72_-122.35_2018.csv)
New Loadshape.55091_37.72_-122.51_2018 npts= 35040 interval=0.25 mult = (file=/projects/distcosts3/SMART-DS/v1.0/2018/SFO_xfmr/pv-profiles/55091_37.72_-122.51_2018.csv)
New Loadshape.54527_37.70_-122.53_2018 npts= 35040 interval=0.25 mult = (file=/projects/distcosts3/SMART-DS/v1.0/2018/SFO_xfmr/pv-profiles/54527_37.70_-122.53_2018.csv)
New Loadshape.53963_37.78_-122.55_2018 npts= 35040 interval=0.25 mult = (file=/projects/distcosts3/SMART-DS/v1.0/2018/SFO_xfmr/pv-profiles/53963_37.78_-122.55_2018.csv)
New Loadshape.60878_37.74_-122.31_2018 npts= 35040 interval=0.25 mult = (file=/projects/distcosts3/SMART-DS/v1.0/2018/SFO_xfmr/pv-profiles/60878_37.74_-122.31_2018.csv)
New Loadshape.57917_37.70_-122.41_2018 npts= 35040 interval=0.25 mult = (file=/projects/distcosts3/SMART-DS/v1.0/2018/SFO_xfmr/pv-profiles/57917_37.70_-122.41_2018.csv)
New Loadshape.55653_37.74_-122.49_2018 npts= 35040 interval=0.25 mult = (file=/projects/distcosts3/SMART-DS/v1.0/2018/SFO_xfmr/pv-profiles/55653_37.74_-122.49_2018.csv)
New Loadshape.56214_37.76_-122.47_2018 npts= 35040 interval=0.25 mult = (file=/projects/distcosts3/SMART-DS/v1.0/2018/SFO_xfmr/pv-profiles/56214_37.76_-122.47_2018.csv)
New Loadshape.59080_37.74_-122.37_2018 npts= 35040 interval=0.25 mult = (file=/projects/distcosts3/SMART-DS/v1.0/2018/SFO_xfmr/pv-profiles/59080_37.74_-122.37_2018.csv)
New Loadshape.56775_37.78_-122.45_2018 npts= 35040 interval=0.25 mult = (file=/projects/distcosts3/SMART-DS/v1.0/2018/SFO_xfmr/pv-profiles/56775_37.78_-122.45_2018.csv)
New Loadshape.56774_37.80_-122.45_2018 npts= 35040 interval=0.25 mult = (file=/projects/distcosts3/SMART-DS/v1.0/2018/SFO_xfmr/pv-profiles/56774_37.80_-122.45_2018.csv)
New Loadshape.56213_37.78_-122.47_2018 npts= 35040 interval=0.25 mult = (file=/projects/distcosts3/SMART-DS/v1.0/2018/SFO_xfmr/pv-profiles/56213_37.78_-122.47_2018.csv)
New Loadshape.59077_37.80_-122.37_2018 npts= 35040 interval=0.25 mult = (file=/projects/distcosts3/SMART-DS/v1.0/2018/SFO_xfmr/pv-profiles/59077_37.80_-122.37_2018.csv)
New Loadshape.57913_37.78_-122.41_2018 npts= 35040 interval=0.25 mult = (file=/projects/distcosts3/SMART-DS/v1.0/2018/SFO_xfmr/pv-profiles/57913_37.78_-122.41_2018.csv)
New Loadshape.53965_37.74_-122.55_2018 npts= 35040 interval=0.25 mult = (file=/projects/distcosts3/SMART-DS/v1.0/2018/SFO_xfmr/pv-profiles/53965_37.74_-122.55_2018.csv)
New Loadshape.55089_37.76_-122.51_2018 npts= 35040 interval=0.25 mult = (file=/projects/distcosts3/SMART-DS/v1.0/2018/SFO_xfmr/pv-profiles/55089_37.76_-122.51_2018.csv)
New Loadshape.60880_37.70_-122.31_2018 npts= 35040 interval=0.25 mult = (file=/projects/distcosts3/SMART-DS/v1.0/2018/SFO_xfmr/pv-profiles/60880_37.70_-122.31_2018.csv)
New Loadshape.58495_37.70_-122.39_2018 npts= 35040 interval=0.25 mult = (file=/projects/distcosts3/SMART-DS/v1.0/2018/SFO_xfmr/pv-profiles/58495_37.70_-122.39_2018.csv)
New Loadshape.60275_37.70_-122.33_2018 npts= 35040 interval=0.25 mult = (file=/projects/distcosts3/SMART-DS/v1.0/2018/SFO_xfmr/pv-profiles/60275_37.70_-122.33_2018.csv)
New Loadshape.59078_37.78_-122.37_2018 npts= 35040 interval=0.25 mult = (file=/projects/distcosts3/SMART-DS/v1.0/2018/SFO_xfmr/pv-profiles/59078_37.78_-122.37_2018.csv)
New Loadshape.53403_37.76_-122.57_2018 npts= 35040 interval=0.25 mult = (file=/projects/distcosts3/SMART-DS/v1.0/2018/SFO_xfmr/pv-profiles/53403_37.76_-122.57_2018.csv)
New Loadshape.55655_37.70_-122.49_2018 npts= 35040 interval=0.25 mult = (file=/projects/distcosts3/SMART-DS/v1.0/2018/SFO_xfmr/pv-profiles/55655_37.70_-122.49_2018.csv)
New Loadshape.57914_37.76_-122.41_2018 npts= 35040 interval=0.25 mult = (file=/projects/distcosts3/SMART-DS/v1.0/2018/SFO_xfmr/pv-profiles/57914_37.76_-122.41_2018.csv)
New Loadshape.60270_37.80_-122.33_2018 npts= 35040 interval=0.25 mult = (file=/projects/distcosts3/SMART-DS/v1.0/2018/SFO_xfmr/pv-profiles/60270_37.80_-122.33_2018.csv)
New Loadshape.54524_37.76_-122.53_2018 npts= 35040 interval=0.25 mult = (file=/projects/distcosts3/SMART-DS/v1.0/2018/SFO_xfmr/pv-profiles/54524_37.76_-122.53_2018.csv)
New Loadshape.59079_37.76_-122.37_2018 npts= 35040 interval=0.25 mult = (file=/projects/distcosts3/SMART-DS/v1.0/2018/SFO_xfmr/pv-profiles/59079_37.76_-122.37_2018.csv)
New Loadshape.53964_37.76_-122.55_2018 npts= 35040 interval=0.25 mult = (file=/projects/distcosts3/SMART-DS/v1.0/2018/SFO_xfmr/pv-profiles/53964_37.76_-122.55_2018.csv)
New Loadshape.59081_37.72_-122.37_2018 npts= 35040 interval=0.25 mult = (file=/projects/distcosts3/SMART-DS/v1.0/2018/SFO_xfmr/pv-profiles/59081_37.72_-122.37_2018.csv)
New Loadshape.53405_37.72_-122.57_2018 npts= 35040 interval=0.25 mult = (file=/projects/distcosts3/SMART-DS/v1.0/2018/SFO_xfmr/pv-profiles/53405_37.72_-122.57_2018.csv)
New Loadshape.55651_37.78_-122.49_2018 npts= 35040 interval=0.25 mult = (file=/projects/distcosts3/SMART-DS/v1.0/2018/SFO_xfmr/pv-profiles/55651_37.78_-122.49_2018.csv)
New Loadshape.60875_37.80_-122.31_2018 npts= 35040 interval=0.25 mult = (file=/projects/distcosts3/SMART-DS/v1.0/2018/SFO_xfmr/pv-profiles/60875_37.80_-122.31_2018.csv)
New Loadshape.57345_37.70_-122.43_2018 npts= 35040 interval=0.25 mult = (file=/projects/distcosts3/SMART-DS/v1.0/2018/SFO_xfmr/pv-profiles/57345_37.70_-122.43_2018.csv)
New Loadshape.55650_37.80_-122.49_2018 npts= 35040 interval=0.25 mult = (file=/projects/distcosts3/SMART-DS/v1.0/2018/SFO_xfmr/pv-profiles/55650_37.80_-122.49_2018.csv)
New Loadshape.55090_37.74_-122.51_2018 npts= 35040 interval=0.25 mult = (file=/projects/distcosts3/SMART-DS/v1.0/2018/SFO_xfmr/pv-profiles/55090_37.74_-122.51_2018.csv)
New Loadshape.58491_37.78_-122.39_2018 npts= 35040 interval=0.25 mult = (file=/projects/distcosts3/SMART-DS/v1.0/2018/SFO_xfmr/pv-profiles/58491_37.78_-122.39_2018.csv)
New Loadshape.59676_37.70_-122.35_2018 npts= 35040 interval=0.25 mult = (file=/projects/distcosts3/SMART-DS/v1.0/2018/SFO_xfmr/pv-profiles/59676_37.70_-122.35_2018.csv)
New Loadshape.60271_37.78_-122.33_2018 npts= 35040 interval=0.25 mult = (file=/projects/distcosts3/SMART-DS/v1.0/2018/SFO_xfmr/pv-profiles/60271_37.78_-122.33_2018.csv)
New Loadshape.53966_37.72_-122.55_2018 npts= 35040 interval=0.25 mult = (file=/projects/distcosts3/SMART-DS/v1.0/2018/SFO_xfmr/pv-profiles/53966_37.72_-122.55_2018.csv)
New Loadshape.53962_37.80_-122.55_2018 npts= 35040 interval=0.25 mult = (file=/projects/distcosts3/SMART-DS/v1.0/2018/SFO_xfmr/pv-profiles/53962_37.80_-122.55_2018.csv)
New Loadshape.56212_37.80_-122.47_2018 npts= 35040 interval=0.25 mult = (file=/projects/distcosts3/SMART-DS/v1.0/2018/SFO_xfmr/pv-profiles/56212_37.80_-122.47_2018.csv)
New Loadshape.59672_37.78_-122.35_2018 npts= 35040 interval=0.25 mult = (file=/projects/distcosts3/SMART-DS/v1.0/2018/SFO_xfmr/pv-profiles/59672_37.78_-122.35_2018.csv)
New Loadshape.56779_37.70_-122.45_2018 npts= 35040 interval=0.25 mult = (file=/projects/distcosts3/SMART-DS/v1.0/2018/SFO_xfmr/pv-profiles/56779_37.70_-122.45_2018.csv)
New Loadshape.57912_37.80_-122.41_2018 npts= 35040 interval=0.25 mult = (file=/projects/distcosts3/SMART-DS/v1.0/2018/SFO_xfmr/pv-profiles/57912_37.80_-122.41_2018.csv)
New Loadshape.60272_37.76_-122.33_2018 npts= 35040 interval=0.25 mult = (file=/projects/distcosts3/SMART-DS/v1.0/2018/SFO_xfmr/pv-profiles/60272_37.76_-122.33_2018.csv)
New Loadshape.53404_37.74_-122.57_2018 npts= 35040 interval=0.25 mult = (file=/projects/distcosts3/SMART-DS/v1.0/2018/SFO_xfmr/pv-profiles/53404_37.74_-122.57_2018.csv)
New Loadshape.56777_37.74_-122.45_2018 npts= 35040 interval=0.25 mult = (file=/projects/distcosts3/SMART-DS/v1.0/2018/SFO_xfmr/pv-profiles/56777_37.74_-122.45_2018.csv)
New Loadshape.57340_37.80_-122.43_2018 npts= 35040 interval=0.25 mult = (file=/projects/distcosts3/SMART-DS/v1.0/2018/SFO_xfmr/pv-profiles/57340_37.80_-122.43_2018.csv)
New Loadshape.60877_37.76_-122.31_2018 npts= 35040 interval=0.25 mult = (file=/projects/distcosts3/SMART-DS/v1.0/2018/SFO_xfmr/pv-profiles/60877_37.76_-122.31_2018.csv)
New Loadshape.53967_37.70_-122.55_2018 npts= 35040 interval=0.25 mult = (file=/projects/distcosts3/SMART-DS/v1.0/2018/SFO_xfmr/pv-profiles/53967_37.70_-122.55_2018.csv)
New Loadshape.57916_37.72_-122.41_2018 npts= 35040 interval=0.25 mult = (file=/projects/distcosts3/SMART-DS/v1.0/2018/SFO_xfmr/pv-profiles/57916_37.72_-122.41_2018.csv)
New Loadshape.60273_37.74_-122.33_2018 npts= 35040 interval=0.25 mult = (file=/projects/distcosts3/SMART-DS/v1.0/2018/SFO_xfmr/pv-profiles/60273_37.74_-122.33_2018.csv)
New Loadshape.53402_37.78_-122.57_2018 npts= 35040 interval=0.25 mult = (file=/projects/distcosts3/SMART-DS/v1.0/2018/SFO_xfmr/pv-profiles/53402_37.78_-122.57_2018.csv)
New Loadshape.58490_37.80_-122.39_2018 npts= 35040 interval=0.25 mult = (file=/projects/distcosts3/SMART-DS/v1.0/2018/SFO_xfmr/pv-profiles/58490_37.80_-122.39_2018.csv)
New Loadshape.56215_37.74_-122.47_2018 npts= 35040 interval=0.25 mult = (file=/projects/distcosts3/SMART-DS/v1.0/2018/SFO_xfmr/pv-profiles/56215_37.74_-122.47_2018.csv)
New Loadshape.55088_37.78_-122.51_2018 npts= 35040 interval=0.25 mult = (file=/projects/distcosts3/SMART-DS/v1.0/2018/SFO_xfmr/pv-profiles/55088_37.78_-122.51_2018.csv)
New Loadshape.56776_37.76_-122.45_2018 npts= 35040 interval=0.25 mult = (file=/projects/distcosts3/SMART-DS/v1.0/2018/SFO_xfmr/pv-profiles/56776_37.76_-122.45_2018.csv)
New Loadshape.55654_37.72_-122.49_2018 npts= 35040 interval=0.25 mult = (file=/projects/distcosts3/SMART-DS/v1.0/2018/SFO_xfmr/pv-profiles/55654_37.72_-122.49_2018.csv)
New Loadshape.59082_37.70_-122.37_2018 npts= 35040 interval=0.25 mult = (file=/projects/distcosts3/SMART-DS/v1.0/2018/SFO_xfmr/pv-profiles/59082_37.70_-122.37_2018.csv)
New Loadshape.54525_37.74_-122.53_2018 npts= 35040 interval=0.25 mult = (file=/projects/distcosts3/SMART-DS/v1.0/2018/SFO_xfmr/pv-profiles/54525_37.74_-122.53_2018.csv)
New Loadshape.58494_37.72_-122.39_2018 npts= 35040 interval=0.25 mult = (file=/projects/distcosts3/SMART-DS/v1.0/2018/SFO_xfmr/pv-profiles/58494_37.72_-122.39_2018.csv)
New Loadshape.57915_37.74_-122.41_2018 npts= 35040 interval=0.25 mult = (file=/projects/distcosts3/SMART-DS/v1.0/2018/SFO_xfmr/pv-profiles/57915_37.74_-122.41_2018.csv)
New Loadshape.57343_37.74_-122.43_2018 npts= 35040 interval=0.25 mult = (file=/projects/distcosts3/SMART-DS/v1.0/2018/SFO_xfmr/pv-profiles/57343_37.74_-122.43_2018.csv)
New Loadshape.59673_37.76_-122.35_2018 npts= 35040 interval=0.25 mult = (file=/projects/distcosts3/SMART-DS/v1.0/2018/SFO_xfmr/pv-profiles/59673_37.76_-122.35_2018.csv)
New Loadshape.60876_37.78_-122.31_2018 npts= 35040 interval=0.25 mult = (file=/projects/distcosts3/SMART-DS/v1.0/2018/SFO_xfmr/pv-profiles/60876_37.78_-122.31_2018.csv)
New Loadshape.56778_37.72_-122.45_2018 npts= 35040 interval=0.25 mult = (file=/projects/distcosts3/SMART-DS/v1.0/2018/SFO_xfmr/pv-profiles/56778_37.72_-122.45_2018.csv)
New Loadshape.57342_37.76_-122.43_2018 npts= 35040 interval=0.25 mult = (file=/projects/distcosts3/SMART-DS/v1.0/2018/SFO_xfmr/pv-profiles/57342_37.76_-122.43_2018.csv)
New Loadshape.55087_37.80_-122.51_2018 npts= 35040 interval=0.25 mult = (file=/projects/distcosts3/SMART-DS/v1.0/2018/SFO_xfmr/pv-profiles/55087_37.80_-122.51_2018.csv)
