New Load.load_p7ulv13_1 conn=wye bus1=p7ulv13.1 kV=0.12 Vminpu=0.8 Vmaxpu=1.2 model=1 kW=4.271393986956659 kvar=1.2213936647746906 Phases=1
New Load.load_p7ulv13_2 conn=wye bus1=p7ulv13.2 kV=0.12 Vminpu=0.8 Vmaxpu=1.2 model=1 kW=4.271393986956659 kvar=1.2213936647746906 Phases=1
New Load.load_p7ulv14_1 conn=wye bus1=p7ulv14.1 kV=0.12 Vminpu=0.8 Vmaxpu=1.2 model=1 kW=4.427815907886422 kvar=0.7888382828538644 Phases=1
New Load.load_p7ulv14_2 conn=wye bus1=p7ulv14.2 kV=0.12 Vminpu=0.8 Vmaxpu=1.2 model=1 kW=4.427815907886422 kvar=0.7888382828538644 Phases=1
New Load.load_p7ulv15_1 conn=wye bus1=p7ulv15.1 kV=0.12 Vminpu=0.8 Vmaxpu=1.2 model=1 kW=0.5376772892748619 kvar=0.2974158251491602 Phases=1
New Load.load_p7ulv15_2 conn=wye bus1=p7ulv15.2 kV=0.12 Vminpu=0.8 Vmaxpu=1.2 model=1 kW=0.5376772892748619 kvar=0.2974158251491602 Phases=1
New Load.load_p7ulv16_1 conn=wye bus1=p7ulv16.1 kV=0.12 Vminpu=0.8 Vmaxpu=1.2 model=1 kW=2.8654725542028965 kvar=0.4860984121918115 Phases=1
New Load.load_p7ulv16_2 conn=wye bus1=p7ulv16.2 kV=0.12 Vminpu=0.8 Vmaxpu=1.2 model=1 kW=2.8654725542028965 kvar=0.4860984121918115 Phases=1
New Load.load_p7ulv17_1 conn=wye bus1=p7ulv17.1 kV=0.12 Vminpu=0.8 Vmaxpu=1.2 model=1 kW=1.5478654763148745 kvar=0.5646840796232575 Phases=1
New Load.load_p7ulv17_2 conn=wye bus1=p7ulv17.2 kV=0.12 Vminpu=0.8 Vmaxpu=1.2 model=1 kW=1.5478654763148745 kvar=0.5646840796232575 Phases=1
New Load.load_p7ulv18_1 conn=wye bus1=p7ulv18.1 kV=0.12 Vminpu=0.8 Vmaxpu=1.2 model=1 kW=1.4377468406339768 kvar=0.40703878294918266 Phases=1
New Load.load_p7ulv18_2 conn=wye bus1=p7ulv18.2 kV=0.12 Vminpu=0.8 Vmaxpu=1.2 model=1 kW=1.4377468406339768 kvar=0.40703878294918266 Phases=1
New Load.load_p7ulv19_1 conn=wye bus1=p7ulv19.1 kV=0.12 Vminpu=0.8 Vmaxpu=1.2 model=1 kW=0.6211116916449642 kvar=0.3778136238343289 Phases=1
New Load.load_p7ulv19_2 conn=wye bus1=p7ulv19.2 kV=0.12 Vminpu=0.8 Vmaxpu=1.2 model=1 kW=0.6211116916449642 kvar=0.3778136238343289 Phases=1
New Load.load_p7ulv20_1 conn=wye bus1=p7ulv20.1 kV=0.12 Vminpu=0.8 Vmaxpu=1.2 model=1 kW=1.0817990316674126 kvar=0.6606347783342864 Phases=1
New Load.load_p7ulv20_2 conn=wye bus1=p7ulv20.2 kV=0.12 Vminpu=0.8 Vmaxpu=1.2 model=1 kW=1.0817990316674126 kvar=0.6606347783342864 Phases=1
New Load.load_p7ulv21_1 conn=wye bus1=p7ulv21.1 kV=0.12 Vminpu=0.8 Vmaxpu=1.2 model=1 kW=2.944217637449141 kvar=0.5265857616524692 Phases=1
New Load.load_p7ulv21_2 conn=wye bus1=p7ulv21.2 kV=0.12 Vminpu=0.8 Vmaxpu=1.2 model=1 kW=2.944217637449141 kvar=0.5265857616524692 Phases=1
New Load.load_p7ulv22_1 conn=wye bus1=p7ulv22.1 kV=0.12 Vminpu=0.8 Vmaxpu=1.2 model=1 kW=1.6818250158580716 kvar=0.549320812443813 Phases=1
New Load.load_p7ulv22_2 conn=wye bus1=p7ulv22.2 kV=0.12 Vminpu=0.8 Vmaxpu=1.2 model=1 kW=1.6818250158580716 kvar=0.549320812443813 Phases=1
New Load.load_p7ulv23_1 conn=wye bus1=p7ulv23.1 kV=0.12 Vminpu=0.8 Vmaxpu=1.2 model=1 kW=3.8900549041243417 kvar=0.7551739499285025 Phases=1
New Load.load_p7ulv23_2 conn=wye bus1=p7ulv23.2 kV=0.12 Vminpu=0.8 Vmaxpu=1.2 model=1 kW=3.8900549041243417 kvar=0.7551739499285025 Phases=1
New Load.load_p7ulv24_1 conn=wye bus1=p7ulv24.1 kV=0.12 Vminpu=0.8 Vmaxpu=1.2 model=1 kW=2.3464174292990054 kvar=0.8802812503815668 Phases=1
New Load.load_p7ulv24_2 conn=wye bus1=p7ulv24.2 kV=0.12 Vminpu=0.8 Vmaxpu=1.2 model=1 kW=2.3464174292990054 kvar=0.8802812503815668 Phases=1
New Load.load_p7ulv25_1 conn=wye bus1=p7ulv25.1 kV=0.12 Vminpu=0.8 Vmaxpu=1.2 model=1 kW=4.542113174533756 kvar=1.151257055509776 Phases=1
New Load.load_p7ulv25_2 conn=wye bus1=p7ulv25.2 kV=0.12 Vminpu=0.8 Vmaxpu=1.2 model=1 kW=4.542113174533756 kvar=1.151257055509776 Phases=1
New Load.load_p7ulv26_1 conn=wye bus1=p7ulv26.1 kV=0.12 Vminpu=0.8 Vmaxpu=1.2 model=1 kW=6.0705932929543005 kvar=1.740368147995236 Phases=1
New Load.load_p7ulv26_2 conn=wye bus1=p7ulv26.2 kV=0.12 Vminpu=0.8 Vmaxpu=1.2 model=1 kW=6.0705932929543005 kvar=1.740368147995236 Phases=1
New Load.load_p7ulv27_1 conn=wye bus1=p7ulv27.1 kV=0.12 Vminpu=0.8 Vmaxpu=1.2 model=1 kW=2.08230391546442 kvar=0.6386762700158243 Phases=1
New Load.load_p7ulv27_2 conn=wye bus1=p7ulv27.2 kV=0.12 Vminpu=0.8 Vmaxpu=1.2 model=1 kW=2.08230391546442 kvar=0.6386762700158243 Phases=1
New Load.load_p7ulv28_1 conn=wye bus1=p7ulv28.1 kV=0.12 Vminpu=0.8 Vmaxpu=1.2 model=1 kW=3.459276697523187 kvar=0.8425022918187992 Phases=1
New Load.load_p7ulv28_2 conn=wye bus1=p7ulv28.2 kV=0.12 Vminpu=0.8 Vmaxpu=1.2 model=1 kW=3.459276697523187 kvar=0.8425022918187992 Phases=1
New Load.load_p7ulv29_1 conn=wye bus1=p7ulv29.1 kV=0.12 Vminpu=0.8 Vmaxpu=1.2 model=1 kW=0.5229589832640044 kvar=0.3359880712066463 Phases=1
New Load.load_p7ulv29_2 conn=wye bus1=p7ulv29.2 kV=0.12 Vminpu=0.8 Vmaxpu=1.2 model=1 kW=0.5229589832640044 kvar=0.3359880712066463 Phases=1
New Load.load_p7ulv30_1 conn=wye bus1=p7ulv30.1 kV=0.12 Vminpu=0.8 Vmaxpu=1.2 model=1 kW=4.025235929487997 kvar=1.9672019739719726 Phases=1
New Load.load_p7ulv30_2 conn=wye bus1=p7ulv30.2 kV=0.12 Vminpu=0.8 Vmaxpu=1.2 model=1 kW=4.025235929487997 kvar=1.9672019739719726 Phases=1
New Load.load_p7ulv31_1 conn=wye bus1=p7ulv31.1 kV=0.12 Vminpu=0.8 Vmaxpu=1.2 model=1 kW=0.7053152094522804 kvar=0.23880751536363234 Phases=1
New Load.load_p7ulv31_2 conn=wye bus1=p7ulv31.2 kV=0.12 Vminpu=0.8 Vmaxpu=1.2 model=1 kW=0.7053152094522804 kvar=0.23880751536363234 Phases=1
New Load.load_p7ulv32_1 conn=wye bus1=p7ulv32.1 kV=0.12 Vminpu=0.8 Vmaxpu=1.2 model=1 kW=10.733638061317262 kvar=2.0348836896858478 Phases=1
New Load.load_p7ulv32_2 conn=wye bus1=p7ulv32.2 kV=0.12 Vminpu=0.8 Vmaxpu=1.2 model=1 kW=10.733638061317262 kvar=2.0348836896858478 Phases=1
New Load.load_p7ulv33_1 conn=wye bus1=p7ulv33.1 kV=0.12 Vminpu=0.8 Vmaxpu=1.2 model=1 kW=2.8600456185582517 kvar=0.076341833711785 Phases=1
New Load.load_p7ulv33_2 conn=wye bus1=p7ulv33.2 kV=0.12 Vminpu=0.8 Vmaxpu=1.2 model=1 kW=2.8600456185582517 kvar=0.076341833711785 Phases=1
New Load.load_p7ulv34_1 conn=wye bus1=p7ulv34.1 kV=0.12 Vminpu=0.8 Vmaxpu=1.2 model=1 kW=2.0300314981978542 kvar=0.9225136918449811 Phases=1
New Load.load_p7ulv34_2 conn=wye bus1=p7ulv34.2 kV=0.12 Vminpu=0.8 Vmaxpu=1.2 model=1 kW=2.0300314981978542 kvar=0.9225136918449811 Phases=1
New Load.load_p7ulv35_1 conn=wye bus1=p7ulv35.1 kV=0.12 Vminpu=0.8 Vmaxpu=1.2 model=1 kW=5.678900054512627 kvar=0.2757046368675722 Phases=1
New Load.load_p7ulv35_2 conn=wye bus1=p7ulv35.2 kV=0.12 Vminpu=0.8 Vmaxpu=1.2 model=1 kW=5.678900054512627 kvar=0.2757046368675722 Phases=1
New Load.load_p7ulv36_1 conn=wye bus1=p7ulv36.1 kV=0.12 Vminpu=0.8 Vmaxpu=1.2 model=1 kW=3.9741494434615694 kvar=0.8279217443488271 Phases=1
New Load.load_p7ulv36_2 conn=wye bus1=p7ulv36.2 kV=0.12 Vminpu=0.8 Vmaxpu=1.2 model=1 kW=3.9741494434615694 kvar=0.8279217443488271 Phases=1
New Load.load_p7ulv37_1 conn=wye bus1=p7ulv37.1 kV=0.12 Vminpu=0.8 Vmaxpu=1.2 model=1 kW=1.1427818095792333 kvar=0.5033588044558321 Phases=1
New Load.load_p7ulv37_2 conn=wye bus1=p7ulv37.2 kV=0.12 Vminpu=0.8 Vmaxpu=1.2 model=1 kW=1.1427818095792333 kvar=0.5033588044558321 Phases=1
New Load.load_p7ulv38_1 conn=wye bus1=p7ulv38.1 kV=0.12 Vminpu=0.8 Vmaxpu=1.2 model=1 kW=1.2596055778412756 kvar=0.4460523908595607 Phases=1
New Load.load_p7ulv38_2 conn=wye bus1=p7ulv38.2 kV=0.12 Vminpu=0.8 Vmaxpu=1.2 model=1 kW=1.2596055778412756 kvar=0.4460523908595607 Phases=1
New Load.load_p7ulv39_1 conn=wye bus1=p7ulv39.1 kV=0.12 Vminpu=0.8 Vmaxpu=1.2 model=1 kW=0.9179777962446224 kvar=0.3481400399277513 Phases=1
New Load.load_p7ulv39_2 conn=wye bus1=p7ulv39.2 kV=0.12 Vminpu=0.8 Vmaxpu=1.2 model=1 kW=0.9179777962446224 kvar=0.3481400399277513 Phases=1
New Load.load_p7ulv40_1 conn=wye bus1=p7ulv40.1 kV=0.12 Vminpu=0.8 Vmaxpu=1.2 model=1 kW=2.713755381328842 kvar=0.08332606525685386 Phases=1
New Load.load_p7ulv40_2 conn=wye bus1=p7ulv40.2 kV=0.12 Vminpu=0.8 Vmaxpu=1.2 model=1 kW=2.713755381328842 kvar=0.08332606525685386 Phases=1
New Load.load_p7ulv41_1 conn=wye bus1=p7ulv41.1 kV=0.12 Vminpu=0.8 Vmaxpu=1.2 model=1 kW=1.9007815142328424 kvar=0.908440321005949 Phases=1
New Load.load_p7ulv41_2 conn=wye bus1=p7ulv41.2 kV=0.12 Vminpu=0.8 Vmaxpu=1.2 model=1 kW=1.9007815142328424 kvar=0.908440321005949 Phases=1
New Load.load_p7ulv42_1 conn=wye bus1=p7ulv42.1 kV=0.12 Vminpu=0.8 Vmaxpu=1.2 model=1 kW=1.1508846210190427 kvar=0.6349249537738534 Phases=1
New Load.load_p7ulv42_2 conn=wye bus1=p7ulv42.2 kV=0.12 Vminpu=0.8 Vmaxpu=1.2 model=1 kW=1.1508846210190427 kvar=0.6349249537738534 Phases=1
New Load.load_p7ulv43_1 conn=wye bus1=p7ulv43.1 kV=0.12 Vminpu=0.8 Vmaxpu=1.2 model=1 kW=10.403539263890256 kvar=2.8483168728862345 Phases=1
New Load.load_p7ulv43_2 conn=wye bus1=p7ulv43.2 kV=0.12 Vminpu=0.8 Vmaxpu=1.2 model=1 kW=10.403539263890256 kvar=2.8483168728862345 Phases=1
New Load.load_p7ulv44_1 conn=wye bus1=p7ulv44.1 kV=0.12 Vminpu=0.8 Vmaxpu=1.2 model=1 kW=7.105679249562737 kvar=1.98509284841224 Phases=1
New Load.load_p7ulv44_2 conn=wye bus1=p7ulv44.2 kV=0.12 Vminpu=0.8 Vmaxpu=1.2 model=1 kW=7.105679249562737 kvar=1.98509284841224 Phases=1
New Load.load_p7ulv45_1 conn=wye bus1=p7ulv45.1 kV=0.12 Vminpu=0.8 Vmaxpu=1.2 model=1 kW=0.7538406343539102 kvar=0.42176934505781605 Phases=1
New Load.load_p7ulv45_2 conn=wye bus1=p7ulv45.2 kV=0.12 Vminpu=0.8 Vmaxpu=1.2 model=1 kW=0.7538406343539102 kvar=0.42176934505781605 Phases=1
New Load.load_p7ulv46_1 conn=wye bus1=p7ulv46.1 kV=0.12 Vminpu=0.8 Vmaxpu=1.2 model=1 kW=1.5076378531595525 kvar=0.6493066102159613 Phases=1
New Load.load_p7ulv46_2 conn=wye bus1=p7ulv46.2 kV=0.12 Vminpu=0.8 Vmaxpu=1.2 model=1 kW=1.5076378531595525 kvar=0.6493066102159613 Phases=1
New Load.load_p7ulv47_1 conn=wye bus1=p7ulv47.1 kV=0.12 Vminpu=0.8 Vmaxpu=1.2 model=1 kW=1.272941497663945 kvar=0.5660410395064467 Phases=1
New Load.load_p7ulv47_2 conn=wye bus1=p7ulv47.2 kV=0.12 Vminpu=0.8 Vmaxpu=1.2 model=1 kW=1.272941497663945 kvar=0.5660410395064467 Phases=1
New Load.load_p7ulv48_1 conn=wye bus1=p7ulv48.1 kV=0.12 Vminpu=0.8 Vmaxpu=1.2 model=1 kW=1.001928314210379 kvar=0.4572901775510755 Phases=1
New Load.load_p7ulv48_2 conn=wye bus1=p7ulv48.2 kV=0.12 Vminpu=0.8 Vmaxpu=1.2 model=1 kW=1.001928314210379 kvar=0.4572901775510755 Phases=1
New Load.load_p7ulv49_1 conn=wye bus1=p7ulv49.1 kV=0.12 Vminpu=0.8 Vmaxpu=1.2 model=1 kW=4.186137692621765 kvar=0.9825864525796955 Phases=1
New Load.load_p7ulv49_2 conn=wye bus1=p7ulv49.2 kV=0.12 Vminpu=0.8 Vmaxpu=1.2 model=1 kW=4.186137692621765 kvar=0.9825864525796955 Phases=1
New Load.load_p7ulv50_1 conn=wye bus1=p7ulv50.1 kV=0.12 Vminpu=0.8 Vmaxpu=1.2 model=1 kW=1.919115741074501 kvar=0.2850908988242494 Phases=1
New Load.load_p7ulv50_2 conn=wye bus1=p7ulv50.2 kV=0.12 Vminpu=0.8 Vmaxpu=1.2 model=1 kW=1.919115741074501 kvar=0.2850908988242494 Phases=1
New Load.load_p7ulv51_1 conn=wye bus1=p7ulv51.1 kV=0.12 Vminpu=0.8 Vmaxpu=1.2 model=1 kW=0.1806731805887028 kvar=0.09972937853333595 Phases=1
New Load.load_p7ulv51_2 conn=wye bus1=p7ulv51.2 kV=0.12 Vminpu=0.8 Vmaxpu=1.2 model=1 kW=0.1806731805887028 kvar=0.09972937853333595 Phases=1
New Load.load_p7ulv52_1 conn=wye bus1=p7ulv52.1 kV=0.12 Vminpu=0.8 Vmaxpu=1.2 model=1 kW=4.4802416173061195 kvar=0.16224545041944255 Phases=1
New Load.load_p7ulv52_2 conn=wye bus1=p7ulv52.2 kV=0.12 Vminpu=0.8 Vmaxpu=1.2 model=1 kW=4.4802416173061195 kvar=0.16224545041944255 Phases=1
New Load.load_p7ulv53_1 conn=wye bus1=p7ulv53.1 kV=0.12 Vminpu=0.8 Vmaxpu=1.2 model=1 kW=5.525920175821728 kvar=1.3055821953019051 Phases=1
New Load.load_p7ulv53_2 conn=wye bus1=p7ulv53.2 kV=0.12 Vminpu=0.8 Vmaxpu=1.2 model=1 kW=5.525920175821728 kvar=1.3055821953019051 Phases=1
New Load.load_p7ulv54_1 conn=wye bus1=p7ulv54.1 kV=0.12 Vminpu=0.8 Vmaxpu=1.2 model=1 kW=2.713755381328842 kvar=0.08332606525685386 Phases=1
New Load.load_p7ulv54_2 conn=wye bus1=p7ulv54.2 kV=0.12 Vminpu=0.8 Vmaxpu=1.2 model=1 kW=2.713755381328842 kvar=0.08332606525685386 Phases=1
New Load.load_p7ulv55_1 conn=wye bus1=p7ulv55.1 kV=0.12 Vminpu=0.8 Vmaxpu=1.2 model=1 kW=1.241801892330501 kvar=0.45459688794228914 Phases=1
New Load.load_p7ulv55_2 conn=wye bus1=p7ulv55.2 kV=0.12 Vminpu=0.8 Vmaxpu=1.2 model=1 kW=1.241801892330501 kvar=0.45459688794228914 Phases=1
New Load.load_p7ulv56_1 conn=wye bus1=p7ulv56.1 kV=0.12 Vminpu=0.8 Vmaxpu=1.2 model=1 kW=4.949061308667601 kvar=0.9300018780564023 Phases=1
New Load.load_p7ulv56_2 conn=wye bus1=p7ulv56.2 kV=0.12 Vminpu=0.8 Vmaxpu=1.2 model=1 kW=4.949061308667601 kvar=0.9300018780564023 Phases=1
New Load.load_p7ulv57_1 conn=wye bus1=p7ulv57.1 kV=0.12 Vminpu=0.8 Vmaxpu=1.2 model=1 kW=1.8668291909105112 kvar=0.7572719732007044 Phases=1
New Load.load_p7ulv57_2 conn=wye bus1=p7ulv57.2 kV=0.12 Vminpu=0.8 Vmaxpu=1.2 model=1 kW=1.8668291909105112 kvar=0.7572719732007044 Phases=1
New Load.load_p7ulv58_1 conn=wye bus1=p7ulv58.1 kV=0.12 Vminpu=0.8 Vmaxpu=1.2 model=1 kW=1.8309189378455104 kvar=0.6069744647018672 Phases=1
New Load.load_p7ulv58_2 conn=wye bus1=p7ulv58.2 kV=0.12 Vminpu=0.8 Vmaxpu=1.2 model=1 kW=1.8309189378455104 kvar=0.6069744647018672 Phases=1
New Load.load_p7ulv59_1 conn=wye bus1=p7ulv59.1 kV=0.12 Vminpu=0.8 Vmaxpu=1.2 model=1 kW=2.4662898685127757 kvar=0.8401975852136712 Phases=1
New Load.load_p7ulv59_2 conn=wye bus1=p7ulv59.2 kV=0.12 Vminpu=0.8 Vmaxpu=1.2 model=1 kW=2.4662898685127757 kvar=0.8401975852136712 Phases=1
New Load.load_p7ulv60_1 conn=wye bus1=p7ulv60.1 kV=0.12 Vminpu=0.8 Vmaxpu=1.2 model=1 kW=3.3510072394232218 kvar=1.0333310560089592 Phases=1
New Load.load_p7ulv60_2 conn=wye bus1=p7ulv60.2 kV=0.12 Vminpu=0.8 Vmaxpu=1.2 model=1 kW=3.3510072394232218 kvar=1.0333310560089592 Phases=1
New Load.load_p7ulv61_1 conn=wye bus1=p7ulv61.1 kV=0.12 Vminpu=0.8 Vmaxpu=1.2 model=1 kW=1.2562100051220524 kvar=0.06533962175647968 Phases=1
New Load.load_p7ulv61_2 conn=wye bus1=p7ulv61.2 kV=0.12 Vminpu=0.8 Vmaxpu=1.2 model=1 kW=1.2562100051220524 kvar=0.06533962175647968 Phases=1
New Load.load_p7ulv62_1 conn=wye bus1=p7ulv62.1 kV=0.12 Vminpu=0.8 Vmaxpu=1.2 model=1 kW=7.116371030238139 kvar=1.6975642814852507 Phases=1
New Load.load_p7ulv62_2 conn=wye bus1=p7ulv62.2 kV=0.12 Vminpu=0.8 Vmaxpu=1.2 model=1 kW=7.116371030238139 kvar=1.6975642814852507 Phases=1
New Load.load_p7ulv63_1 conn=wye bus1=p7ulv63.1 kV=0.12 Vminpu=0.8 Vmaxpu=1.2 model=1 kW=4.4040727958533825 kvar=1.1115314188982461 Phases=1
New Load.load_p7ulv63_2 conn=wye bus1=p7ulv63.2 kV=0.12 Vminpu=0.8 Vmaxpu=1.2 model=1 kW=4.4040727958533825 kvar=1.1115314188982461 Phases=1
New Load.load_p7ulv64_1 conn=wye bus1=p7ulv64.1 kV=0.12 Vminpu=0.8 Vmaxpu=1.2 model=1 kW=1.9900519294968924 kvar=0.3112304187135021 Phases=1
New Load.load_p7ulv64_2 conn=wye bus1=p7ulv64.2 kV=0.12 Vminpu=0.8 Vmaxpu=1.2 model=1 kW=1.9900519294968924 kvar=0.3112304187135021 Phases=1
New Load.load_p7ulv65_1 conn=wye bus1=p7ulv65.1 kV=0.12 Vminpu=0.8 Vmaxpu=1.2 model=1 kW=1.213865951323732 kvar=0.4075442101516516 Phases=1
New Load.load_p7ulv65_2 conn=wye bus1=p7ulv65.2 kV=0.12 Vminpu=0.8 Vmaxpu=1.2 model=1 kW=1.213865951323732 kvar=0.4075442101516516 Phases=1
New Load.load_p7ulv66_1 conn=wye bus1=p7ulv66.1 kV=0.12 Vminpu=0.8 Vmaxpu=1.2 model=1 kW=2.180534166391536 kvar=0.7409003320637334 Phases=1
New Load.load_p7ulv66_2 conn=wye bus1=p7ulv66.2 kV=0.12 Vminpu=0.8 Vmaxpu=1.2 model=1 kW=2.180534166391536 kvar=0.7409003320637334 Phases=1
New Load.load_p7ulv67_1 conn=wye bus1=p7ulv67.1 kV=0.12 Vminpu=0.8 Vmaxpu=1.2 model=1 kW=2.069667169731932 kvar=0.6636372988676067 Phases=1
New Load.load_p7ulv67_2 conn=wye bus1=p7ulv67.2 kV=0.12 Vminpu=0.8 Vmaxpu=1.2 model=1 kW=2.069667169731932 kvar=0.6636372988676067 Phases=1
New Load.load_p7ulv68_1 conn=wye bus1=p7ulv68.1 kV=0.12 Vminpu=0.8 Vmaxpu=1.2 model=1 kW=5.127438645009231 kvar=0.8176304041402817 Phases=1
New Load.load_p7ulv68_2 conn=wye bus1=p7ulv68.2 kV=0.12 Vminpu=0.8 Vmaxpu=1.2 model=1 kW=5.127438645009231 kvar=0.8176304041402817 Phases=1
New Load.load_p7ulv69_1 conn=wye bus1=p7ulv69.1 kV=0.12 Vminpu=0.8 Vmaxpu=1.2 model=1 kW=2.8654725542028965 kvar=0.4860984121918115 Phases=1
New Load.load_p7ulv69_2 conn=wye bus1=p7ulv69.2 kV=0.12 Vminpu=0.8 Vmaxpu=1.2 model=1 kW=2.8654725542028965 kvar=0.4860984121918115 Phases=1
New Load.load_p7ulv70_1 conn=wye bus1=p7ulv70.1 kV=0.12 Vminpu=0.8 Vmaxpu=1.2 model=1 kW=4.151480398016275 kvar=0.11399865992730775 Phases=1
New Load.load_p7ulv70_2 conn=wye bus1=p7ulv70.2 kV=0.12 Vminpu=0.8 Vmaxpu=1.2 model=1 kW=4.151480398016275 kvar=0.11399865992730775 Phases=1
New Load.load_p7ulv71_1 conn=wye bus1=p7ulv71.1 kV=0.12 Vminpu=0.8 Vmaxpu=1.2 model=1 kW=1.507865878359724 kvar=0.5977385470921427 Phases=1
New Load.load_p7ulv71_2 conn=wye bus1=p7ulv71.2 kV=0.12 Vminpu=0.8 Vmaxpu=1.2 model=1 kW=1.507865878359724 kvar=0.5977385470921427 Phases=1
New Load.load_p7ulv72_1 conn=wye bus1=p7ulv72.1 kV=0.12 Vminpu=0.8 Vmaxpu=1.2 model=1 kW=2.876043044068563 kvar=0.8047319040687714 Phases=1
New Load.load_p7ulv72_2 conn=wye bus1=p7ulv72.2 kV=0.12 Vminpu=0.8 Vmaxpu=1.2 model=1 kW=2.876043044068563 kvar=0.8047319040687714 Phases=1
New Load.load_p7ulv73_1 conn=wye bus1=p7ulv73.1 kV=0.12 Vminpu=0.8 Vmaxpu=1.2 model=1 kW=2.9091637387776186 kvar=0.9219458938754432 Phases=1
New Load.load_p7ulv73_2 conn=wye bus1=p7ulv73.2 kV=0.12 Vminpu=0.8 Vmaxpu=1.2 model=1 kW=2.9091637387776186 kvar=0.9219458938754432 Phases=1
New Load.load_p7ulv74_1 conn=wye bus1=p7ulv74.1 kV=0.12 Vminpu=0.8 Vmaxpu=1.2 model=1 kW=2.872791085416893 kvar=1.761492956317497 Phases=1
New Load.load_p7ulv74_2 conn=wye bus1=p7ulv74.2 kV=0.12 Vminpu=0.8 Vmaxpu=1.2 model=1 kW=2.872791085416893 kvar=1.761492956317497 Phases=1
New Load.load_p7ulv75_1 conn=wye bus1=p7ulv75.1 kV=0.12 Vminpu=0.8 Vmaxpu=1.2 model=1 kW=0.5348201699646123 kvar=0.21241824123648728 Phases=1
New Load.load_p7ulv75_2 conn=wye bus1=p7ulv75.2 kV=0.12 Vminpu=0.8 Vmaxpu=1.2 model=1 kW=0.5348201699646123 kvar=0.21241824123648728 Phases=1
New Load.load_p7ulv427_1 conn=wye bus1=p7ulv427.1 kV=0.12 Vminpu=0.8 Vmaxpu=1.2 model=1 kW=5.309861720492724 kvar=1.17864942297211 Phases=1
New Load.load_p7ulv427_2 conn=wye bus1=p7ulv427.2 kV=0.12 Vminpu=0.8 Vmaxpu=1.2 model=1 kW=5.309861720492724 kvar=1.17864942297211 Phases=1
New Load.load_p7ulv428_1 conn=wye bus1=p7ulv428.1 kV=0.12 Vminpu=0.8 Vmaxpu=1.2 model=1 kW=4.089287670026504 kvar=0.22715368737478026 Phases=1
New Load.load_p7ulv428_2 conn=wye bus1=p7ulv428.2 kV=0.12 Vminpu=0.8 Vmaxpu=1.2 model=1 kW=4.089287670026504 kvar=0.22715368737478026 Phases=1
New Load.load_p7ulv429_1 conn=wye bus1=p7ulv429.1 kV=0.12 Vminpu=0.8 Vmaxpu=1.2 model=1 kW=2.2749960837590484 kvar=0.21160301080836474 Phases=1
New Load.load_p7ulv429_2 conn=wye bus1=p7ulv429.2 kV=0.12 Vminpu=0.8 Vmaxpu=1.2 model=1 kW=2.2749960837590484 kvar=0.21160301080836474 Phases=1
New Load.load_p7ulv430_1 conn=wye bus1=p7ulv430.1 kV=0.12 Vminpu=0.8 Vmaxpu=1.2 model=1 kW=6.316882868372054 kvar=1.200274322549569 Phases=1
New Load.load_p7ulv430_2 conn=wye bus1=p7ulv430.2 kV=0.12 Vminpu=0.8 Vmaxpu=1.2 model=1 kW=6.316882868372054 kvar=1.200274322549569 Phases=1
New Load.load_p7ulv431_1 conn=wye bus1=p7ulv431.1 kV=0.12 Vminpu=0.8 Vmaxpu=1.2 model=1 kW=1.5424601784243566 kvar=0.31457775613808403 Phases=1
New Load.load_p7ulv431_2 conn=wye bus1=p7ulv431.2 kV=0.12 Vminpu=0.8 Vmaxpu=1.2 model=1 kW=1.5424601784243566 kvar=0.31457775613808403 Phases=1
New Load.load_p7ulv432_1 conn=wye bus1=p7ulv432.1 kV=0.12 Vminpu=0.8 Vmaxpu=1.2 model=1 kW=0.772705532239135 kvar=0.33568286747913667 Phases=1
New Load.load_p7ulv432_2 conn=wye bus1=p7ulv432.2 kV=0.12 Vminpu=0.8 Vmaxpu=1.2 model=1 kW=0.772705532239135 kvar=0.33568286747913667 Phases=1
New Load.load_p7ulv433_1 conn=wye bus1=p7ulv433.1 kV=0.12 Vminpu=0.8 Vmaxpu=1.2 model=1 kW=0.5348201699646123 kvar=0.21241824123648728 Phases=1
New Load.load_p7ulv433_2 conn=wye bus1=p7ulv433.2 kV=0.12 Vminpu=0.8 Vmaxpu=1.2 model=1 kW=0.5348201699646123 kvar=0.21241824123648728 Phases=1
New Load.load_p7ulv434_1 conn=wye bus1=p7ulv434.1 kV=0.12 Vminpu=0.8 Vmaxpu=1.2 model=1 kW=1.634655362134857 kvar=0.5597948152611254 Phases=1
New Load.load_p7ulv434_2 conn=wye bus1=p7ulv434.2 kV=0.12 Vminpu=0.8 Vmaxpu=1.2 model=1 kW=1.634655362134857 kvar=0.5597948152611254 Phases=1
New Load.load_p7ulv435_1 conn=wye bus1=p7ulv435.1 kV=0.12 Vminpu=0.8 Vmaxpu=1.2 model=1 kW=1.6481762593729927 kvar=0.809597412462238 Phases=1
New Load.load_p7ulv435_2 conn=wye bus1=p7ulv435.2 kV=0.12 Vminpu=0.8 Vmaxpu=1.2 model=1 kW=1.6481762593729927 kvar=0.809597412462238 Phases=1
New Load.load_p7ulv436_1 conn=wye bus1=p7ulv436.1 kV=0.12 Vminpu=0.8 Vmaxpu=1.2 model=1 kW=2.9734073797928815 kvar=0.4436263611296804 Phases=1
New Load.load_p7ulv436_2 conn=wye bus1=p7ulv436.2 kV=0.12 Vminpu=0.8 Vmaxpu=1.2 model=1 kW=2.9734073797928815 kvar=0.4436263611296804 Phases=1
New Load.load_p7ulv437_1 conn=wye bus1=p7ulv437.1 kV=0.12 Vminpu=0.8 Vmaxpu=1.2 model=1 kW=7.853291162119347 kvar=1.8256553054609097 Phases=1
New Load.load_p7ulv437_2 conn=wye bus1=p7ulv437.2 kV=0.12 Vminpu=0.8 Vmaxpu=1.2 model=1 kW=7.853291162119347 kvar=1.8256553054609097 Phases=1
New Load.load_p7ulv438_1 conn=wye bus1=p7ulv438.1 kV=0.12 Vminpu=0.8 Vmaxpu=1.2 model=1 kW=1.7228393963905424 kvar=0.8202092673396962 Phases=1
New Load.load_p7ulv438_2 conn=wye bus1=p7ulv438.2 kV=0.12 Vminpu=0.8 Vmaxpu=1.2 model=1 kW=1.7228393963905424 kvar=0.8202092673396962 Phases=1
New Load.load_p7ulv439_1 conn=wye bus1=p7ulv439.1 kV=0.12 Vminpu=0.8 Vmaxpu=1.2 model=1 kW=3.7423733275175537 kvar=0.8750647097824762 Phases=1
New Load.load_p7ulv439_2 conn=wye bus1=p7ulv439.2 kV=0.12 Vminpu=0.8 Vmaxpu=1.2 model=1 kW=3.7423733275175537 kvar=0.8750647097824762 Phases=1
New Load.load_p7ulv440_1 conn=wye bus1=p7ulv440.1 kV=0.12 Vminpu=0.8 Vmaxpu=1.2 model=1 kW=3.3612560165719545 kvar=0.7198526424662817 Phases=1
New Load.load_p7ulv440_2 conn=wye bus1=p7ulv440.2 kV=0.12 Vminpu=0.8 Vmaxpu=1.2 model=1 kW=3.3612560165719545 kvar=0.7198526424662817 Phases=1
New Load.load_p7ulv441_1 conn=wye bus1=p7ulv441.1 kV=0.12 Vminpu=0.8 Vmaxpu=1.2 model=1 kW=1.5478654763148745 kvar=0.5646840796232575 Phases=1
New Load.load_p7ulv441_2 conn=wye bus1=p7ulv441.2 kV=0.12 Vminpu=0.8 Vmaxpu=1.2 model=1 kW=1.5478654763148745 kvar=0.5646840796232575 Phases=1
New Load.load_p7ulv442_1 conn=wye bus1=p7ulv442.1 kV=0.12 Vminpu=0.8 Vmaxpu=1.2 model=1 kW=1.1461342593009323 kvar=0.5165512162199262 Phases=1
New Load.load_p7ulv442_2 conn=wye bus1=p7ulv442.2 kV=0.12 Vminpu=0.8 Vmaxpu=1.2 model=1 kW=1.1461342593009323 kvar=0.5165512162199262 Phases=1
New Load.load_p7ulv443_1 conn=wye bus1=p7ulv443.1 kV=0.12 Vminpu=0.8 Vmaxpu=1.2 model=1 kW=2.756314659688145 kvar=1.0585826624779617 Phases=1
New Load.load_p7ulv443_2 conn=wye bus1=p7ulv443.2 kV=0.12 Vminpu=0.8 Vmaxpu=1.2 model=1 kW=2.756314659688145 kvar=1.0585826624779617 Phases=1
New Load.load_p7ulv444_1 conn=wye bus1=p7ulv444.1 kV=0.12 Vminpu=0.8 Vmaxpu=1.2 model=1 kW=5.1309802218740215 kvar=1.2239507151971278 Phases=1
New Load.load_p7ulv444_2 conn=wye bus1=p7ulv444.2 kV=0.12 Vminpu=0.8 Vmaxpu=1.2 model=1 kW=5.1309802218740215 kvar=1.2239507151971278 Phases=1
New Load.load_p7ulv445_1 conn=wye bus1=p7ulv445.1 kV=0.12 Vminpu=0.8 Vmaxpu=1.2 model=1 kW=1.1454977454277966 kvar=0.34384677887710696 Phases=1
New Load.load_p7ulv445_2 conn=wye bus1=p7ulv445.2 kV=0.12 Vminpu=0.8 Vmaxpu=1.2 model=1 kW=1.1454977454277966 kvar=0.34384677887710696 Phases=1
New Load.load_p7ulv446_1 conn=wye bus1=p7ulv446.1 kV=0.12 Vminpu=0.8 Vmaxpu=1.2 model=1 kW=4.535814578215727 kvar=1.1468156482621605 Phases=1
New Load.load_p7ulv446_2 conn=wye bus1=p7ulv446.2 kV=0.12 Vminpu=0.8 Vmaxpu=1.2 model=1 kW=4.535814578215727 kvar=1.1468156482621605 Phases=1
New Load.load_p7ulv447_1 conn=wye bus1=p7ulv447.1 kV=0.12 Vminpu=0.8 Vmaxpu=1.2 model=1 kW=0.35395787140957025 kvar=0.14845654114897794 Phases=1
New Load.load_p7ulv447_2 conn=wye bus1=p7ulv447.2 kV=0.12 Vminpu=0.8 Vmaxpu=1.2 model=1 kW=0.35395787140957025 kvar=0.14845654114897794 Phases=1
New Load.load_p7ulv450_1 conn=wye bus1=p7ulv450.1 kV=0.12 Vminpu=0.8 Vmaxpu=1.2 model=1 kW=1.3045913389935166 kvar=0.4451055608917815 Phases=1
New Load.load_p7ulv450_2 conn=wye bus1=p7ulv450.2 kV=0.12 Vminpu=0.8 Vmaxpu=1.2 model=1 kW=1.3045913389935166 kvar=0.4451055608917815 Phases=1
New Load.load_p7ulv451_1 conn=wye bus1=p7ulv451.1 kV=0.12 Vminpu=0.8 Vmaxpu=1.2 model=1 kW=1.723630488628118 kvar=0.3963873661434877 Phases=1
New Load.load_p7ulv451_2 conn=wye bus1=p7ulv451.2 kV=0.12 Vminpu=0.8 Vmaxpu=1.2 model=1 kW=1.723630488628118 kvar=0.3963873661434877 Phases=1
New Load.load_p7ulv452_1 conn=wye bus1=p7ulv452.1 kV=0.12 Vminpu=0.8 Vmaxpu=1.2 model=1 kW=4.151480398016275 kvar=0.11399865992730775 Phases=1
New Load.load_p7ulv452_2 conn=wye bus1=p7ulv452.2 kV=0.12 Vminpu=0.8 Vmaxpu=1.2 model=1 kW=4.151480398016275 kvar=0.11399865992730775 Phases=1
New Load.load_p7ulv453_1 conn=wye bus1=p7ulv453.1 kV=0.12 Vminpu=0.8 Vmaxpu=1.2 model=1 kW=1.554325896527151 kvar=0.5828877012431191 Phases=1
New Load.load_p7ulv453_2 conn=wye bus1=p7ulv453.2 kV=0.12 Vminpu=0.8 Vmaxpu=1.2 model=1 kW=1.554325896527151 kvar=0.5828877012431191 Phases=1
New Load.load_p7ulv454_1 conn=wye bus1=p7ulv454.1 kV=0.12 Vminpu=0.8 Vmaxpu=1.2 model=1 kW=1.1279462099368607 kvar=0.26589229023148586 Phases=1
New Load.load_p7ulv454_2 conn=wye bus1=p7ulv454.2 kV=0.12 Vminpu=0.8 Vmaxpu=1.2 model=1 kW=1.1279462099368607 kvar=0.26589229023148586 Phases=1
New Load.load_p7ulv455_1 conn=wye bus1=p7ulv455.1 kV=0.12 Vminpu=0.8 Vmaxpu=1.2 model=1 kW=0.3294807001486596 kvar=0.17013897229745006 Phases=1
New Load.load_p7ulv455_2 conn=wye bus1=p7ulv455.2 kV=0.12 Vminpu=0.8 Vmaxpu=1.2 model=1 kW=0.3294807001486596 kvar=0.17013897229745006 Phases=1
New Load.load_p7ulv456_1 conn=wye bus1=p7ulv456.1 kV=0.12 Vminpu=0.8 Vmaxpu=1.2 model=1 kW=0.5229589832640044 kvar=0.3359880712066463 Phases=1
New Load.load_p7ulv456_2 conn=wye bus1=p7ulv456.2 kV=0.12 Vminpu=0.8 Vmaxpu=1.2 model=1 kW=0.5229589832640044 kvar=0.3359880712066463 Phases=1
New Load.load_p7ulv457_1 conn=wye bus1=p7ulv457.1 kV=0.12 Vminpu=0.8 Vmaxpu=1.2 model=1 kW=0.5229589832640044 kvar=0.3359880712066463 Phases=1
New Load.load_p7ulv457_2 conn=wye bus1=p7ulv457.2 kV=0.12 Vminpu=0.8 Vmaxpu=1.2 model=1 kW=0.5229589832640044 kvar=0.3359880712066463 Phases=1
New Load.load_p7ulv458_1 conn=wye bus1=p7ulv458.1 kV=0.12 Vminpu=0.8 Vmaxpu=1.2 model=1 kW=2.2142575595505583 kvar=0.8511261488468437 Phases=1
New Load.load_p7ulv458_2 conn=wye bus1=p7ulv458.2 kV=0.12 Vminpu=0.8 Vmaxpu=1.2 model=1 kW=2.2142575595505583 kvar=0.8511261488468437 Phases=1
New Load.load_p7ulv460_1 conn=wye bus1=p7ulv460.1 kV=0.12 Vminpu=0.8 Vmaxpu=1.2 model=1 kW=3.7847716543397305 kvar=0.8567239737527961 Phases=1
New Load.load_p7ulv460_2 conn=wye bus1=p7ulv460.2 kV=0.12 Vminpu=0.8 Vmaxpu=1.2 model=1 kW=3.7847716543397305 kvar=0.8567239737527961 Phases=1
New Load.load_p7ulv461_1 conn=wye bus1=p7ulv461.1 kV=0.12 Vminpu=0.8 Vmaxpu=1.2 model=1 kW=2.298373512871933 kvar=0.08780226018253445 Phases=1
New Load.load_p7ulv461_2 conn=wye bus1=p7ulv461.2 kV=0.12 Vminpu=0.8 Vmaxpu=1.2 model=1 kW=2.298373512871933 kvar=0.08780226018253445 Phases=1
New Load.load_p7ulv462_1 conn=wye bus1=p7ulv462.1 kV=0.12 Vminpu=0.8 Vmaxpu=1.2 model=1 kW=4.482076096937868 kvar=0.7619497004160868 Phases=1
New Load.load_p7ulv462_2 conn=wye bus1=p7ulv462.2 kV=0.12 Vminpu=0.8 Vmaxpu=1.2 model=1 kW=4.482076096937868 kvar=0.7619497004160868 Phases=1
New Load.load_p7ulv463_1 conn=wye bus1=p7ulv463.1 kV=0.12 Vminpu=0.8 Vmaxpu=1.2 model=1 kW=2.5982154580897467 kvar=0.4454060690391374 Phases=1
New Load.load_p7ulv463_2 conn=wye bus1=p7ulv463.2 kV=0.12 Vminpu=0.8 Vmaxpu=1.2 model=1 kW=2.5982154580897467 kvar=0.4454060690391374 Phases=1
New Load.load_p7ulv464_1 conn=wye bus1=p7ulv464.1 kV=0.12 Vminpu=0.8 Vmaxpu=1.2 model=1 kW=2.6976007564693765 kvar=1.0012223642000246 Phases=1
New Load.load_p7ulv464_2 conn=wye bus1=p7ulv464.2 kV=0.12 Vminpu=0.8 Vmaxpu=1.2 model=1 kW=2.6976007564693765 kvar=1.0012223642000246 Phases=1
New Load.load_p7ulv467_1 conn=wye bus1=p7ulv467.1 kV=0.12 Vminpu=0.8 Vmaxpu=1.2 model=1 kW=5.241202113120479 kvar=0.23127492109209705 Phases=1
New Load.load_p7ulv467_2 conn=wye bus1=p7ulv467.2 kV=0.12 Vminpu=0.8 Vmaxpu=1.2 model=1 kW=5.241202113120479 kvar=0.23127492109209705 Phases=1
New Load.load_p7ulv469_1 conn=wye bus1=p7ulv469.1 kV=0.12 Vminpu=0.8 Vmaxpu=1.2 model=1 kW=4.542113174533756 kvar=1.151257055509776 Phases=1
New Load.load_p7ulv469_2 conn=wye bus1=p7ulv469.2 kV=0.12 Vminpu=0.8 Vmaxpu=1.2 model=1 kW=4.542113174533756 kvar=1.151257055509776 Phases=1
New Load.load_p7ulv470_1 conn=wye bus1=p7ulv470.1 kV=0.12 Vminpu=0.8 Vmaxpu=1.2 model=1 kW=1.8033099995778592 kvar=0.5916030112244985 Phases=1
New Load.load_p7ulv470_2 conn=wye bus1=p7ulv470.2 kV=0.12 Vminpu=0.8 Vmaxpu=1.2 model=1 kW=1.8033099995778592 kvar=0.5916030112244985 Phases=1
New Load.load_p7ulv471_1 conn=wye bus1=p7ulv471.1 kV=0.12 Vminpu=0.8 Vmaxpu=1.2 model=1 kW=4.728425530745831 kvar=1.3995045736112663 Phases=1
New Load.load_p7ulv471_2 conn=wye bus1=p7ulv471.2 kV=0.12 Vminpu=0.8 Vmaxpu=1.2 model=1 kW=4.728425530745831 kvar=1.3995045736112663 Phases=1
New Load.load_p7ulv472_1 conn=wye bus1=p7ulv472.1 kV=0.12 Vminpu=0.8 Vmaxpu=1.2 model=1 kW=1.8309189378455104 kvar=0.6069744647018672 Phases=1
New Load.load_p7ulv472_2 conn=wye bus1=p7ulv472.2 kV=0.12 Vminpu=0.8 Vmaxpu=1.2 model=1 kW=1.8309189378455104 kvar=0.6069744647018672 Phases=1
New Load.load_p7ulv474_1 conn=wye bus1=p7ulv474.1 kV=0.12 Vminpu=0.8 Vmaxpu=1.2 model=1 kW=1.5319989526038411 kvar=0.9052438048917442 Phases=1
New Load.load_p7ulv474_2 conn=wye bus1=p7ulv474.2 kV=0.12 Vminpu=0.8 Vmaxpu=1.2 model=1 kW=1.5319989526038411 kvar=0.9052438048917442 Phases=1
New Load.load_p7ulv475_1 conn=wye bus1=p7ulv475.1 kV=0.12 Vminpu=0.8 Vmaxpu=1.2 model=1 kW=1.1211291861785844 kvar=0.48375648015097145 Phases=1
New Load.load_p7ulv475_2 conn=wye bus1=p7ulv475.2 kV=0.12 Vminpu=0.8 Vmaxpu=1.2 model=1 kW=1.1211291861785844 kvar=0.48375648015097145 Phases=1
New Load.load_p7ulv476_1 conn=wye bus1=p7ulv476.1 kV=0.12 Vminpu=0.8 Vmaxpu=1.2 model=1 kW=4.083951745833768 kvar=0.9853982282300497 Phases=1
New Load.load_p7ulv476_2 conn=wye bus1=p7ulv476.2 kV=0.12 Vminpu=0.8 Vmaxpu=1.2 model=1 kW=4.083951745833768 kvar=0.9853982282300497 Phases=1