New Loadshape.res_kw_11496_pu npts= 35040 interval=0.25 mult = (file=/projects/distcosts3/SMART-DS/v1.0/2018/SFO_xfmr/P7U/profiles/res_kw_11496_pu.csv) qmult = (file=/projects/distcosts3/SMART-DS/v1.0/2018/SFO_xfmr/P7U/profiles/res_kvar_11496_pu.csv)

New Loadshape.res_kw_12775_pu npts= 35040 interval=0.25 mult = (file=/projects/distcosts3/SMART-DS/v1.0/2018/SFO_xfmr/P7U/profiles/res_kw_12775_pu.csv) qmult = (file=/projects/distcosts3/SMART-DS/v1.0/2018/SFO_xfmr/P7U/profiles/res_kvar_12775_pu.csv)

New Loadshape.res_kw_13923_pu npts= 35040 interval=0.25 mult = (file=/projects/distcosts3/SMART-DS/v1.0/2018/SFO_xfmr/P7U/profiles/res_kw_13923_pu.csv) qmult = (file=/projects/distcosts3/SMART-DS/v1.0/2018/SFO_xfmr/P7U/profiles/res_kvar_13923_pu.csv)

New Loadshape.res_kw_11779_pu npts= 35040 interval=0.25 mult = (file=/projects/distcosts3/SMART-DS/v1.0/2018/SFO_xfmr/P7U/profiles/res_kw_11779_pu.csv) qmult = (file=/projects/distcosts3/SMART-DS/v1.0/2018/SFO_xfmr/P7U/profiles/res_kvar_11779_pu.csv)

New Loadshape.res_kw_14157_pu npts= 35040 interval=0.25 mult = (file=/projects/distcosts3/SMART-DS/v1.0/2018/SFO_xfmr/P7U/profiles/res_kw_14157_pu.csv) qmult = (file=/projects/distcosts3/SMART-DS/v1.0/2018/SFO_xfmr/P7U/profiles/res_kvar_14157_pu.csv)

New Loadshape.res_kw_4118_pu npts= 35040 interval=0.25 mult = (file=/projects/distcosts3/SMART-DS/v1.0/2018/SFO_xfmr/P7U/profiles/res_kw_4118_pu.csv) qmult = (file=/projects/distcosts3/SMART-DS/v1.0/2018/SFO_xfmr/P7U/profiles/res_kvar_4118_pu.csv)

New Loadshape.res_kw_2823_pu npts= 35040 interval=0.25 mult = (file=/projects/distcosts3/SMART-DS/v1.0/2018/SFO_xfmr/P7U/profiles/res_kw_2823_pu.csv) qmult = (file=/projects/distcosts3/SMART-DS/v1.0/2018/SFO_xfmr/P7U/profiles/res_kvar_2823_pu.csv)

New Loadshape.res_kw_7820_pu npts= 35040 interval=0.25 mult = (file=/projects/distcosts3/SMART-DS/v1.0/2018/SFO_xfmr/P7U/profiles/res_kw_7820_pu.csv) qmult = (file=/projects/distcosts3/SMART-DS/v1.0/2018/SFO_xfmr/P7U/profiles/res_kvar_7820_pu.csv)

New Loadshape.res_kw_13722_pu npts= 35040 interval=0.25 mult = (file=/projects/distcosts3/SMART-DS/v1.0/2018/SFO_xfmr/P7U/profiles/res_kw_13722_pu.csv) qmult = (file=/projects/distcosts3/SMART-DS/v1.0/2018/SFO_xfmr/P7U/profiles/res_kvar_13722_pu.csv)

New Loadshape.res_kw_13745_pu npts= 35040 interval=0.25 mult = (file=/projects/distcosts3/SMART-DS/v1.0/2018/SFO_xfmr/P7U/profiles/res_kw_13745_pu.csv) qmult = (file=/projects/distcosts3/SMART-DS/v1.0/2018/SFO_xfmr/P7U/profiles/res_kvar_13745_pu.csv)

New Loadshape.res_kw_5928_pu npts= 35040 interval=0.25 mult = (file=/projects/distcosts3/SMART-DS/v1.0/2018/SFO_xfmr/P7U/profiles/res_kw_5928_pu.csv) qmult = (file=/projects/distcosts3/SMART-DS/v1.0/2018/SFO_xfmr/P7U/profiles/res_kvar_5928_pu.csv)

New Loadshape.res_kw_14557_pu npts= 35040 interval=0.25 mult = (file=/projects/distcosts3/SMART-DS/v1.0/2018/SFO_xfmr/P7U/profiles/res_kw_14557_pu.csv) qmult = (file=/projects/distcosts3/SMART-DS/v1.0/2018/SFO_xfmr/P7U/profiles/res_kvar_14557_pu.csv)

New Loadshape.res_kw_11663_pu npts= 35040 interval=0.25 mult = (file=/projects/distcosts3/SMART-DS/v1.0/2018/SFO_xfmr/P7U/profiles/res_kw_11663_pu.csv) qmult = (file=/projects/distcosts3/SMART-DS/v1.0/2018/SFO_xfmr/P7U/profiles/res_kvar_11663_pu.csv)

New Loadshape.res_kw_4304_pu npts= 35040 interval=0.25 mult = (file=/projects/distcosts3/SMART-DS/v1.0/2018/SFO_xfmr/P7U/profiles/res_kw_4304_pu.csv) qmult = (file=/projects/distcosts3/SMART-DS/v1.0/2018/SFO_xfmr/P7U/profiles/res_kvar_4304_pu.csv)

New Loadshape.res_kw_7615_pu npts= 35040 interval=0.25 mult = (file=/projects/distcosts3/SMART-DS/v1.0/2018/SFO_xfmr/P7U/profiles/res_kw_7615_pu.csv) qmult = (file=/projects/distcosts3/SMART-DS/v1.0/2018/SFO_xfmr/P7U/profiles/res_kvar_7615_pu.csv)

New Loadshape.res_kw_3245_pu npts= 35040 interval=0.25 mult = (file=/projects/distcosts3/SMART-DS/v1.0/2018/SFO_xfmr/P7U/profiles/res_kw_3245_pu.csv) qmult = (file=/projects/distcosts3/SMART-DS/v1.0/2018/SFO_xfmr/P7U/profiles/res_kvar_3245_pu.csv)

New Loadshape.res_kw_8986_pu npts= 35040 interval=0.25 mult = (file=/projects/distcosts3/SMART-DS/v1.0/2018/SFO_xfmr/P7U/profiles/res_kw_8986_pu.csv) qmult = (file=/projects/distcosts3/SMART-DS/v1.0/2018/SFO_xfmr/P7U/profiles/res_kvar_8986_pu.csv)

New Loadshape.res_kw_7172_pu npts= 35040 interval=0.25 mult = (file=/projects/distcosts3/SMART-DS/v1.0/2018/SFO_xfmr/P7U/profiles/res_kw_7172_pu.csv) qmult = (file=/projects/distcosts3/SMART-DS/v1.0/2018/SFO_xfmr/P7U/profiles/res_kvar_7172_pu.csv)

New Loadshape.res_kw_1786_pu npts= 35040 interval=0.25 mult = (file=/projects/distcosts3/SMART-DS/v1.0/2018/SFO_xfmr/P7U/profiles/res_kw_1786_pu.csv) qmult = (file=/projects/distcosts3/SMART-DS/v1.0/2018/SFO_xfmr/P7U/profiles/res_kvar_1786_pu.csv)

New Loadshape.res_kw_13250_pu npts= 35040 interval=0.25 mult = (file=/projects/distcosts3/SMART-DS/v1.0/2018/SFO_xfmr/P7U/profiles/res_kw_13250_pu.csv) qmult = (file=/projects/distcosts3/SMART-DS/v1.0/2018/SFO_xfmr/P7U/profiles/res_kvar_13250_pu.csv)

New Loadshape.res_kw_3213_pu npts= 35040 interval=0.25 mult = (file=/projects/distcosts3/SMART-DS/v1.0/2018/SFO_xfmr/P7U/profiles/res_kw_3213_pu.csv) qmult = (file=/projects/distcosts3/SMART-DS/v1.0/2018/SFO_xfmr/P7U/profiles/res_kvar_3213_pu.csv)

New Loadshape.res_kw_5872_pu npts= 35040 interval=0.25 mult = (file=/projects/distcosts3/SMART-DS/v1.0/2018/SFO_xfmr/P7U/profiles/res_kw_5872_pu.csv) qmult = (file=/projects/distcosts3/SMART-DS/v1.0/2018/SFO_xfmr/P7U/profiles/res_kvar_5872_pu.csv)

New Loadshape.res_kw_4488_pu npts= 35040 interval=0.25 mult = (file=/projects/distcosts3/SMART-DS/v1.0/2018/SFO_xfmr/P7U/profiles/res_kw_4488_pu.csv) qmult = (file=/projects/distcosts3/SMART-DS/v1.0/2018/SFO_xfmr/P7U/profiles/res_kvar_4488_pu.csv)

New Loadshape.res_kw_5410_pu npts= 35040 interval=0.25 mult = (file=/projects/distcosts3/SMART-DS/v1.0/2018/SFO_xfmr/P7U/profiles/res_kw_5410_pu.csv) qmult = (file=/projects/distcosts3/SMART-DS/v1.0/2018/SFO_xfmr/P7U/profiles/res_kvar_5410_pu.csv)

New Loadshape.res_kw_10152_pu npts= 35040 interval=0.25 mult = (file=/projects/distcosts3/SMART-DS/v1.0/2018/SFO_xfmr/P7U/profiles/res_kw_10152_pu.csv) qmult = (file=/projects/distcosts3/SMART-DS/v1.0/2018/SFO_xfmr/P7U/profiles/res_kvar_10152_pu.csv)

New Loadshape.res_kw_7050_pu npts= 35040 interval=0.25 mult = (file=/projects/distcosts3/SMART-DS/v1.0/2018/SFO_xfmr/P7U/profiles/res_kw_7050_pu.csv) qmult = (file=/projects/distcosts3/SMART-DS/v1.0/2018/SFO_xfmr/P7U/profiles/res_kvar_7050_pu.csv)

New Loadshape.res_kw_1372_pu npts= 35040 interval=0.25 mult = (file=/projects/distcosts3/SMART-DS/v1.0/2018/SFO_xfmr/P7U/profiles/res_kw_1372_pu.csv) qmult = (file=/projects/distcosts3/SMART-DS/v1.0/2018/SFO_xfmr/P7U/profiles/res_kvar_1372_pu.csv)

New Loadshape.res_kw_12019_pu npts= 35040 interval=0.25 mult = (file=/projects/distcosts3/SMART-DS/v1.0/2018/SFO_xfmr/P7U/profiles/res_kw_12019_pu.csv) qmult = (file=/projects/distcosts3/SMART-DS/v1.0/2018/SFO_xfmr/P7U/profiles/res_kvar_12019_pu.csv)

New Loadshape.res_kw_2425_pu npts= 35040 interval=0.25 mult = (file=/projects/distcosts3/SMART-DS/v1.0/2018/SFO_xfmr/P7U/profiles/res_kw_2425_pu.csv) qmult = (file=/projects/distcosts3/SMART-DS/v1.0/2018/SFO_xfmr/P7U/profiles/res_kvar_2425_pu.csv)

New Loadshape.res_kw_1770_pu npts= 35040 interval=0.25 mult = (file=/projects/distcosts3/SMART-DS/v1.0/2018/SFO_xfmr/P7U/profiles/res_kw_1770_pu.csv) qmult = (file=/projects/distcosts3/SMART-DS/v1.0/2018/SFO_xfmr/P7U/profiles/res_kvar_1770_pu.csv)

New Loadshape.res_kw_995_pu npts= 35040 interval=0.25 mult = (file=/projects/distcosts3/SMART-DS/v1.0/2018/SFO_xfmr/P7U/profiles/res_kw_995_pu.csv) qmult = (file=/projects/distcosts3/SMART-DS/v1.0/2018/SFO_xfmr/P7U/profiles/res_kvar_995_pu.csv)

New Loadshape.res_kw_10140_pu npts= 35040 interval=0.25 mult = (file=/projects/distcosts3/SMART-DS/v1.0/2018/SFO_xfmr/P7U/profiles/res_kw_10140_pu.csv) qmult = (file=/projects/distcosts3/SMART-DS/v1.0/2018/SFO_xfmr/P7U/profiles/res_kvar_10140_pu.csv)

New Loadshape.res_kw_13041_pu npts= 35040 interval=0.25 mult = (file=/projects/distcosts3/SMART-DS/v1.0/2018/SFO_xfmr/P7U/profiles/res_kw_13041_pu.csv) qmult = (file=/projects/distcosts3/SMART-DS/v1.0/2018/SFO_xfmr/P7U/profiles/res_kvar_13041_pu.csv)

New Loadshape.res_kw_13348_pu npts= 35040 interval=0.25 mult = (file=/projects/distcosts3/SMART-DS/v1.0/2018/SFO_xfmr/P7U/profiles/res_kw_13348_pu.csv) qmult = (file=/projects/distcosts3/SMART-DS/v1.0/2018/SFO_xfmr/P7U/profiles/res_kvar_13348_pu.csv)

New Loadshape.res_kw_2917_pu npts= 35040 interval=0.25 mult = (file=/projects/distcosts3/SMART-DS/v1.0/2018/SFO_xfmr/P7U/profiles/res_kw_2917_pu.csv) qmult = (file=/projects/distcosts3/SMART-DS/v1.0/2018/SFO_xfmr/P7U/profiles/res_kvar_2917_pu.csv)

New Loadshape.res_kw_291_pu npts= 35040 interval=0.25 mult = (file=/projects/distcosts3/SMART-DS/v1.0/2018/SFO_xfmr/P7U/profiles/res_kw_291_pu.csv) qmult = (file=/projects/distcosts3/SMART-DS/v1.0/2018/SFO_xfmr/P7U/profiles/res_kvar_291_pu.csv)

New Loadshape.res_kw_10222_pu npts= 35040 interval=0.25 mult = (file=/projects/distcosts3/SMART-DS/v1.0/2018/SFO_xfmr/P7U/profiles/res_kw_10222_pu.csv) qmult = (file=/projects/distcosts3/SMART-DS/v1.0/2018/SFO_xfmr/P7U/profiles/res_kvar_10222_pu.csv)

New Loadshape.res_kw_430_pu npts= 35040 interval=0.25 mult = (file=/projects/distcosts3/SMART-DS/v1.0/2018/SFO_xfmr/P7U/profiles/res_kw_430_pu.csv) qmult = (file=/projects/distcosts3/SMART-DS/v1.0/2018/SFO_xfmr/P7U/profiles/res_kvar_430_pu.csv)

New Loadshape.res_kw_836_pu npts= 35040 interval=0.25 mult = (file=/projects/distcosts3/SMART-DS/v1.0/2018/SFO_xfmr/P7U/profiles/res_kw_836_pu.csv) qmult = (file=/projects/distcosts3/SMART-DS/v1.0/2018/SFO_xfmr/P7U/profiles/res_kvar_836_pu.csv)

New Loadshape.res_kw_5635_pu npts= 35040 interval=0.25 mult = (file=/projects/distcosts3/SMART-DS/v1.0/2018/SFO_xfmr/P7U/profiles/res_kw_5635_pu.csv) qmult = (file=/projects/distcosts3/SMART-DS/v1.0/2018/SFO_xfmr/P7U/profiles/res_kvar_5635_pu.csv)

New Loadshape.res_kw_13779_pu npts= 35040 interval=0.25 mult = (file=/projects/distcosts3/SMART-DS/v1.0/2018/SFO_xfmr/P7U/profiles/res_kw_13779_pu.csv) qmult = (file=/projects/distcosts3/SMART-DS/v1.0/2018/SFO_xfmr/P7U/profiles/res_kvar_13779_pu.csv)

New Loadshape.res_kw_2606_pu npts= 35040 interval=0.25 mult = (file=/projects/distcosts3/SMART-DS/v1.0/2018/SFO_xfmr/P7U/profiles/res_kw_2606_pu.csv) qmult = (file=/projects/distcosts3/SMART-DS/v1.0/2018/SFO_xfmr/P7U/profiles/res_kvar_2606_pu.csv)

New Loadshape.res_kw_4310_pu npts= 35040 interval=0.25 mult = (file=/projects/distcosts3/SMART-DS/v1.0/2018/SFO_xfmr/P7U/profiles/res_kw_4310_pu.csv) qmult = (file=/projects/distcosts3/SMART-DS/v1.0/2018/SFO_xfmr/P7U/profiles/res_kvar_4310_pu.csv)

New Loadshape.res_kw_10071_pu npts= 35040 interval=0.25 mult = (file=/projects/distcosts3/SMART-DS/v1.0/2018/SFO_xfmr/P7U/profiles/res_kw_10071_pu.csv) qmult = (file=/projects/distcosts3/SMART-DS/v1.0/2018/SFO_xfmr/P7U/profiles/res_kvar_10071_pu.csv)

New Loadshape.res_kw_14950_pu npts= 35040 interval=0.25 mult = (file=/projects/distcosts3/SMART-DS/v1.0/2018/SFO_xfmr/P7U/profiles/res_kw_14950_pu.csv) qmult = (file=/projects/distcosts3/SMART-DS/v1.0/2018/SFO_xfmr/P7U/profiles/res_kvar_14950_pu.csv)

New Loadshape.res_kw_7966_pu npts= 35040 interval=0.25 mult = (file=/projects/distcosts3/SMART-DS/v1.0/2018/SFO_xfmr/P7U/profiles/res_kw_7966_pu.csv) qmult = (file=/projects/distcosts3/SMART-DS/v1.0/2018/SFO_xfmr/P7U/profiles/res_kvar_7966_pu.csv)

New Loadshape.res_kw_13668_pu npts= 35040 interval=0.25 mult = (file=/projects/distcosts3/SMART-DS/v1.0/2018/SFO_xfmr/P7U/profiles/res_kw_13668_pu.csv) qmult = (file=/projects/distcosts3/SMART-DS/v1.0/2018/SFO_xfmr/P7U/profiles/res_kvar_13668_pu.csv)

New Loadshape.res_kw_1519_pu npts= 35040 interval=0.25 mult = (file=/projects/distcosts3/SMART-DS/v1.0/2018/SFO_xfmr/P7U/profiles/res_kw_1519_pu.csv) qmult = (file=/projects/distcosts3/SMART-DS/v1.0/2018/SFO_xfmr/P7U/profiles/res_kvar_1519_pu.csv)

New Loadshape.res_kw_13190_pu npts= 35040 interval=0.25 mult = (file=/projects/distcosts3/SMART-DS/v1.0/2018/SFO_xfmr/P7U/profiles/res_kw_13190_pu.csv) qmult = (file=/projects/distcosts3/SMART-DS/v1.0/2018/SFO_xfmr/P7U/profiles/res_kvar_13190_pu.csv)

New Loadshape.res_kw_12933_pu npts= 35040 interval=0.25 mult = (file=/projects/distcosts3/SMART-DS/v1.0/2018/SFO_xfmr/P7U/profiles/res_kw_12933_pu.csv) qmult = (file=/projects/distcosts3/SMART-DS/v1.0/2018/SFO_xfmr/P7U/profiles/res_kvar_12933_pu.csv)

New Loadshape.res_kw_13410_pu npts= 35040 interval=0.25 mult = (file=/projects/distcosts3/SMART-DS/v1.0/2018/SFO_xfmr/P7U/profiles/res_kw_13410_pu.csv) qmult = (file=/projects/distcosts3/SMART-DS/v1.0/2018/SFO_xfmr/P7U/profiles/res_kvar_13410_pu.csv)

New Loadshape.res_kw_6662_pu npts= 35040 interval=0.25 mult = (file=/projects/distcosts3/SMART-DS/v1.0/2018/SFO_xfmr/P7U/profiles/res_kw_6662_pu.csv) qmult = (file=/projects/distcosts3/SMART-DS/v1.0/2018/SFO_xfmr/P7U/profiles/res_kvar_6662_pu.csv)

New Loadshape.res_kw_13707_pu npts= 35040 interval=0.25 mult = (file=/projects/distcosts3/SMART-DS/v1.0/2018/SFO_xfmr/P7U/profiles/res_kw_13707_pu.csv) qmult = (file=/projects/distcosts3/SMART-DS/v1.0/2018/SFO_xfmr/P7U/profiles/res_kvar_13707_pu.csv)

New Loadshape.res_kw_4165_pu npts= 35040 interval=0.25 mult = (file=/projects/distcosts3/SMART-DS/v1.0/2018/SFO_xfmr/P7U/profiles/res_kw_4165_pu.csv) qmult = (file=/projects/distcosts3/SMART-DS/v1.0/2018/SFO_xfmr/P7U/profiles/res_kvar_4165_pu.csv)

New Loadshape.res_kw_5354_pu npts= 35040 interval=0.25 mult = (file=/projects/distcosts3/SMART-DS/v1.0/2018/SFO_xfmr/P7U/profiles/res_kw_5354_pu.csv) qmult = (file=/projects/distcosts3/SMART-DS/v1.0/2018/SFO_xfmr/P7U/profiles/res_kvar_5354_pu.csv)

New Loadshape.res_kw_10710_pu npts= 35040 interval=0.25 mult = (file=/projects/distcosts3/SMART-DS/v1.0/2018/SFO_xfmr/P7U/profiles/res_kw_10710_pu.csv) qmult = (file=/projects/distcosts3/SMART-DS/v1.0/2018/SFO_xfmr/P7U/profiles/res_kvar_10710_pu.csv)

New Loadshape.res_kw_13166_pu npts= 35040 interval=0.25 mult = (file=/projects/distcosts3/SMART-DS/v1.0/2018/SFO_xfmr/P7U/profiles/res_kw_13166_pu.csv) qmult = (file=/projects/distcosts3/SMART-DS/v1.0/2018/SFO_xfmr/P7U/profiles/res_kvar_13166_pu.csv)

New Loadshape.res_kw_11875_pu npts= 35040 interval=0.25 mult = (file=/projects/distcosts3/SMART-DS/v1.0/2018/SFO_xfmr/P7U/profiles/res_kw_11875_pu.csv) qmult = (file=/projects/distcosts3/SMART-DS/v1.0/2018/SFO_xfmr/P7U/profiles/res_kvar_11875_pu.csv)

New Loadshape.res_kw_3651_pu npts= 35040 interval=0.25 mult = (file=/projects/distcosts3/SMART-DS/v1.0/2018/SFO_xfmr/P7U/profiles/res_kw_3651_pu.csv) qmult = (file=/projects/distcosts3/SMART-DS/v1.0/2018/SFO_xfmr/P7U/profiles/res_kvar_3651_pu.csv)

New Loadshape.res_kw_9376_pu npts= 35040 interval=0.25 mult = (file=/projects/distcosts3/SMART-DS/v1.0/2018/SFO_xfmr/P7U/profiles/res_kw_9376_pu.csv) qmult = (file=/projects/distcosts3/SMART-DS/v1.0/2018/SFO_xfmr/P7U/profiles/res_kvar_9376_pu.csv)

New Loadshape.res_kw_10341_pu npts= 35040 interval=0.25 mult = (file=/projects/distcosts3/SMART-DS/v1.0/2018/SFO_xfmr/P7U/profiles/res_kw_10341_pu.csv) qmult = (file=/projects/distcosts3/SMART-DS/v1.0/2018/SFO_xfmr/P7U/profiles/res_kvar_10341_pu.csv)

New Loadshape.res_kw_14088_pu npts= 35040 interval=0.25 mult = (file=/projects/distcosts3/SMART-DS/v1.0/2018/SFO_xfmr/P7U/profiles/res_kw_14088_pu.csv) qmult = (file=/projects/distcosts3/SMART-DS/v1.0/2018/SFO_xfmr/P7U/profiles/res_kvar_14088_pu.csv)

New Loadshape.res_kw_7086_pu npts= 35040 interval=0.25 mult = (file=/projects/distcosts3/SMART-DS/v1.0/2018/SFO_xfmr/P7U/profiles/res_kw_7086_pu.csv) qmult = (file=/projects/distcosts3/SMART-DS/v1.0/2018/SFO_xfmr/P7U/profiles/res_kvar_7086_pu.csv)

New Loadshape.res_kw_370_pu npts= 35040 interval=0.25 mult = (file=/projects/distcosts3/SMART-DS/v1.0/2018/SFO_xfmr/P7U/profiles/res_kw_370_pu.csv) qmult = (file=/projects/distcosts3/SMART-DS/v1.0/2018/SFO_xfmr/P7U/profiles/res_kvar_370_pu.csv)

New Loadshape.res_kw_2556_pu npts= 35040 interval=0.25 mult = (file=/projects/distcosts3/SMART-DS/v1.0/2018/SFO_xfmr/P7U/profiles/res_kw_2556_pu.csv) qmult = (file=/projects/distcosts3/SMART-DS/v1.0/2018/SFO_xfmr/P7U/profiles/res_kvar_2556_pu.csv)

New Loadshape.res_kw_5668_pu npts= 35040 interval=0.25 mult = (file=/projects/distcosts3/SMART-DS/v1.0/2018/SFO_xfmr/P7U/profiles/res_kw_5668_pu.csv) qmult = (file=/projects/distcosts3/SMART-DS/v1.0/2018/SFO_xfmr/P7U/profiles/res_kvar_5668_pu.csv)

New Loadshape.res_kw_9406_pu npts= 35040 interval=0.25 mult = (file=/projects/distcosts3/SMART-DS/v1.0/2018/SFO_xfmr/P7U/profiles/res_kw_9406_pu.csv) qmult = (file=/projects/distcosts3/SMART-DS/v1.0/2018/SFO_xfmr/P7U/profiles/res_kvar_9406_pu.csv)

New Loadshape.res_kw_1592_pu npts= 35040 interval=0.25 mult = (file=/projects/distcosts3/SMART-DS/v1.0/2018/SFO_xfmr/P7U/profiles/res_kw_1592_pu.csv) qmult = (file=/projects/distcosts3/SMART-DS/v1.0/2018/SFO_xfmr/P7U/profiles/res_kvar_1592_pu.csv)

New Loadshape.res_kw_379_pu npts= 35040 interval=0.25 mult = (file=/projects/distcosts3/SMART-DS/v1.0/2018/SFO_xfmr/P7U/profiles/res_kw_379_pu.csv) qmult = (file=/projects/distcosts3/SMART-DS/v1.0/2018/SFO_xfmr/P7U/profiles/res_kvar_379_pu.csv)

New Loadshape.res_kw_7102_pu npts= 35040 interval=0.25 mult = (file=/projects/distcosts3/SMART-DS/v1.0/2018/SFO_xfmr/P7U/profiles/res_kw_7102_pu.csv) qmult = (file=/projects/distcosts3/SMART-DS/v1.0/2018/SFO_xfmr/P7U/profiles/res_kvar_7102_pu.csv)

New Loadshape.res_kw_1005_pu npts= 35040 interval=0.25 mult = (file=/projects/distcosts3/SMART-DS/v1.0/2018/SFO_xfmr/P7U/profiles/res_kw_1005_pu.csv) qmult = (file=/projects/distcosts3/SMART-DS/v1.0/2018/SFO_xfmr/P7U/profiles/res_kvar_1005_pu.csv)

New Loadshape.res_kw_6984_pu npts= 35040 interval=0.25 mult = (file=/projects/distcosts3/SMART-DS/v1.0/2018/SFO_xfmr/P7U/profiles/res_kw_6984_pu.csv) qmult = (file=/projects/distcosts3/SMART-DS/v1.0/2018/SFO_xfmr/P7U/profiles/res_kvar_6984_pu.csv)

New Loadshape.res_kw_10713_pu npts= 35040 interval=0.25 mult = (file=/projects/distcosts3/SMART-DS/v1.0/2018/SFO_xfmr/P7U/profiles/res_kw_10713_pu.csv) qmult = (file=/projects/distcosts3/SMART-DS/v1.0/2018/SFO_xfmr/P7U/profiles/res_kvar_10713_pu.csv)

New Loadshape.res_kw_6378_pu npts= 35040 interval=0.25 mult = (file=/projects/distcosts3/SMART-DS/v1.0/2018/SFO_xfmr/P7U/profiles/res_kw_6378_pu.csv) qmult = (file=/projects/distcosts3/SMART-DS/v1.0/2018/SFO_xfmr/P7U/profiles/res_kvar_6378_pu.csv)

New Loadshape.res_kw_606_pu npts= 35040 interval=0.25 mult = (file=/projects/distcosts3/SMART-DS/v1.0/2018/SFO_xfmr/P7U/profiles/res_kw_606_pu.csv) qmult = (file=/projects/distcosts3/SMART-DS/v1.0/2018/SFO_xfmr/P7U/profiles/res_kvar_606_pu.csv)

New Loadshape.res_kw_9260_pu npts= 35040 interval=0.25 mult = (file=/projects/distcosts3/SMART-DS/v1.0/2018/SFO_xfmr/P7U/profiles/res_kw_9260_pu.csv) qmult = (file=/projects/distcosts3/SMART-DS/v1.0/2018/SFO_xfmr/P7U/profiles/res_kvar_9260_pu.csv)

New Loadshape.res_kw_6160_pu npts= 35040 interval=0.25 mult = (file=/projects/distcosts3/SMART-DS/v1.0/2018/SFO_xfmr/P7U/profiles/res_kw_6160_pu.csv) qmult = (file=/projects/distcosts3/SMART-DS/v1.0/2018/SFO_xfmr/P7U/profiles/res_kvar_6160_pu.csv)

New Loadshape.res_kw_7_pu npts= 35040 interval=0.25 mult = (file=/projects/distcosts3/SMART-DS/v1.0/2018/SFO_xfmr/P7U/profiles/res_kw_7_pu.csv) qmult = (file=/projects/distcosts3/SMART-DS/v1.0/2018/SFO_xfmr/P7U/profiles/res_kvar_7_pu.csv)

New Loadshape.res_kw_6311_pu npts= 35040 interval=0.25 mult = (file=/projects/distcosts3/SMART-DS/v1.0/2018/SFO_xfmr/P7U/profiles/res_kw_6311_pu.csv) qmult = (file=/projects/distcosts3/SMART-DS/v1.0/2018/SFO_xfmr/P7U/profiles/res_kvar_6311_pu.csv)

New Loadshape.res_kw_11147_pu npts= 35040 interval=0.25 mult = (file=/projects/distcosts3/SMART-DS/v1.0/2018/SFO_xfmr/P7U/profiles/res_kw_11147_pu.csv) qmult = (file=/projects/distcosts3/SMART-DS/v1.0/2018/SFO_xfmr/P7U/profiles/res_kvar_11147_pu.csv)

New Loadshape.res_kw_2776_pu npts= 35040 interval=0.25 mult = (file=/projects/distcosts3/SMART-DS/v1.0/2018/SFO_xfmr/P7U/profiles/res_kw_2776_pu.csv) qmult = (file=/projects/distcosts3/SMART-DS/v1.0/2018/SFO_xfmr/P7U/profiles/res_kvar_2776_pu.csv)

New Loadshape.res_kw_5671_pu npts= 35040 interval=0.25 mult = (file=/projects/distcosts3/SMART-DS/v1.0/2018/SFO_xfmr/P7U/profiles/res_kw_5671_pu.csv) qmult = (file=/projects/distcosts3/SMART-DS/v1.0/2018/SFO_xfmr/P7U/profiles/res_kvar_5671_pu.csv)

New Loadshape.res_kw_6915_pu npts= 35040 interval=0.25 mult = (file=/projects/distcosts3/SMART-DS/v1.0/2018/SFO_xfmr/P7U/profiles/res_kw_6915_pu.csv) qmult = (file=/projects/distcosts3/SMART-DS/v1.0/2018/SFO_xfmr/P7U/profiles/res_kvar_6915_pu.csv)

New Loadshape.res_kw_6256_pu npts= 35040 interval=0.25 mult = (file=/projects/distcosts3/SMART-DS/v1.0/2018/SFO_xfmr/P7U/profiles/res_kw_6256_pu.csv) qmult = (file=/projects/distcosts3/SMART-DS/v1.0/2018/SFO_xfmr/P7U/profiles/res_kvar_6256_pu.csv)

New Loadshape.res_kw_12305_pu npts= 35040 interval=0.25 mult = (file=/projects/distcosts3/SMART-DS/v1.0/2018/SFO_xfmr/P7U/profiles/res_kw_12305_pu.csv) qmult = (file=/projects/distcosts3/SMART-DS/v1.0/2018/SFO_xfmr/P7U/profiles/res_kvar_12305_pu.csv)

New Loadshape.res_kw_1336_pu npts= 35040 interval=0.25 mult = (file=/projects/distcosts3/SMART-DS/v1.0/2018/SFO_xfmr/P7U/profiles/res_kw_1336_pu.csv) qmult = (file=/projects/distcosts3/SMART-DS/v1.0/2018/SFO_xfmr/P7U/profiles/res_kvar_1336_pu.csv)

New Loadshape.res_kw_7894_pu npts= 35040 interval=0.25 mult = (file=/projects/distcosts3/SMART-DS/v1.0/2018/SFO_xfmr/P7U/profiles/res_kw_7894_pu.csv) qmult = (file=/projects/distcosts3/SMART-DS/v1.0/2018/SFO_xfmr/P7U/profiles/res_kvar_7894_pu.csv)

New Loadshape.res_kw_7043_pu npts= 35040 interval=0.25 mult = (file=/projects/distcosts3/SMART-DS/v1.0/2018/SFO_xfmr/P7U/profiles/res_kw_7043_pu.csv) qmult = (file=/projects/distcosts3/SMART-DS/v1.0/2018/SFO_xfmr/P7U/profiles/res_kvar_7043_pu.csv)

New Loadshape.res_kw_8384_pu npts= 35040 interval=0.25 mult = (file=/projects/distcosts3/SMART-DS/v1.0/2018/SFO_xfmr/P7U/profiles/res_kw_8384_pu.csv) qmult = (file=/projects/distcosts3/SMART-DS/v1.0/2018/SFO_xfmr/P7U/profiles/res_kvar_8384_pu.csv)

New Loadshape.res_kw_7033_pu npts= 35040 interval=0.25 mult = (file=/projects/distcosts3/SMART-DS/v1.0/2018/SFO_xfmr/P7U/profiles/res_kw_7033_pu.csv) qmult = (file=/projects/distcosts3/SMART-DS/v1.0/2018/SFO_xfmr/P7U/profiles/res_kvar_7033_pu.csv)

New Loadshape.res_kw_7264_pu npts= 35040 interval=0.25 mult = (file=/projects/distcosts3/SMART-DS/v1.0/2018/SFO_xfmr/P7U/profiles/res_kw_7264_pu.csv) qmult = (file=/projects/distcosts3/SMART-DS/v1.0/2018/SFO_xfmr/P7U/profiles/res_kvar_7264_pu.csv)

New Loadshape.res_kw_13436_pu npts= 35040 interval=0.25 mult = (file=/projects/distcosts3/SMART-DS/v1.0/2018/SFO_xfmr/P7U/profiles/res_kw_13436_pu.csv) qmult = (file=/projects/distcosts3/SMART-DS/v1.0/2018/SFO_xfmr/P7U/profiles/res_kvar_13436_pu.csv)

New Loadshape.res_kw_7362_pu npts= 35040 interval=0.25 mult = (file=/projects/distcosts3/SMART-DS/v1.0/2018/SFO_xfmr/P7U/profiles/res_kw_7362_pu.csv) qmult = (file=/projects/distcosts3/SMART-DS/v1.0/2018/SFO_xfmr/P7U/profiles/res_kvar_7362_pu.csv)

New Loadshape.res_kw_1361_pu npts= 35040 interval=0.25 mult = (file=/projects/distcosts3/SMART-DS/v1.0/2018/SFO_xfmr/P7U/profiles/res_kw_1361_pu.csv) qmult = (file=/projects/distcosts3/SMART-DS/v1.0/2018/SFO_xfmr/P7U/profiles/res_kvar_1361_pu.csv)

New Loadshape.res_kw_9825_pu npts= 35040 interval=0.25 mult = (file=/projects/distcosts3/SMART-DS/v1.0/2018/SFO_xfmr/P7U/profiles/res_kw_9825_pu.csv) qmult = (file=/projects/distcosts3/SMART-DS/v1.0/2018/SFO_xfmr/P7U/profiles/res_kvar_9825_pu.csv)

New Loadshape.res_kw_6275_pu npts= 35040 interval=0.25 mult = (file=/projects/distcosts3/SMART-DS/v1.0/2018/SFO_xfmr/P7U/profiles/res_kw_6275_pu.csv) qmult = (file=/projects/distcosts3/SMART-DS/v1.0/2018/SFO_xfmr/P7U/profiles/res_kvar_6275_pu.csv)

New Loadshape.res_kw_2678_pu npts= 35040 interval=0.25 mult = (file=/projects/distcosts3/SMART-DS/v1.0/2018/SFO_xfmr/P7U/profiles/res_kw_2678_pu.csv) qmult = (file=/projects/distcosts3/SMART-DS/v1.0/2018/SFO_xfmr/P7U/profiles/res_kvar_2678_pu.csv)

New Loadshape.res_kw_1335_pu npts= 35040 interval=0.25 mult = (file=/projects/distcosts3/SMART-DS/v1.0/2018/SFO_xfmr/P7U/profiles/res_kw_1335_pu.csv) qmult = (file=/projects/distcosts3/SMART-DS/v1.0/2018/SFO_xfmr/P7U/profiles/res_kvar_1335_pu.csv)

New Loadshape.res_kw_6825_pu npts= 35040 interval=0.25 mult = (file=/projects/distcosts3/SMART-DS/v1.0/2018/SFO_xfmr/P7U/profiles/res_kw_6825_pu.csv) qmult = (file=/projects/distcosts3/SMART-DS/v1.0/2018/SFO_xfmr/P7U/profiles/res_kvar_6825_pu.csv)

New Loadshape.res_kw_771_pu npts= 35040 interval=0.25 mult = (file=/projects/distcosts3/SMART-DS/v1.0/2018/SFO_xfmr/P7U/profiles/res_kw_771_pu.csv) qmult = (file=/projects/distcosts3/SMART-DS/v1.0/2018/SFO_xfmr/P7U/profiles/res_kvar_771_pu.csv)

New Loadshape.res_kw_11810_pu npts= 35040 interval=0.25 mult = (file=/projects/distcosts3/SMART-DS/v1.0/2018/SFO_xfmr/P7U/profiles/res_kw_11810_pu.csv) qmult = (file=/projects/distcosts3/SMART-DS/v1.0/2018/SFO_xfmr/P7U/profiles/res_kvar_11810_pu.csv)

New Loadshape.res_kw_2196_pu npts= 35040 interval=0.25 mult = (file=/projects/distcosts3/SMART-DS/v1.0/2018/SFO_xfmr/P7U/profiles/res_kw_2196_pu.csv) qmult = (file=/projects/distcosts3/SMART-DS/v1.0/2018/SFO_xfmr/P7U/profiles/res_kvar_2196_pu.csv)

New Loadshape.res_kw_127_pu npts= 35040 interval=0.25 mult = (file=/projects/distcosts3/SMART-DS/v1.0/2018/SFO_xfmr/P7U/profiles/res_kw_127_pu.csv) qmult = (file=/projects/distcosts3/SMART-DS/v1.0/2018/SFO_xfmr/P7U/profiles/res_kvar_127_pu.csv)

New Loadshape.res_kw_11801_pu npts= 35040 interval=0.25 mult = (file=/projects/distcosts3/SMART-DS/v1.0/2018/SFO_xfmr/P7U/profiles/res_kw_11801_pu.csv) qmult = (file=/projects/distcosts3/SMART-DS/v1.0/2018/SFO_xfmr/P7U/profiles/res_kvar_11801_pu.csv)

New Loadshape.res_kw_9164_pu npts= 35040 interval=0.25 mult = (file=/projects/distcosts3/SMART-DS/v1.0/2018/SFO_xfmr/P7U/profiles/res_kw_9164_pu.csv) qmult = (file=/projects/distcosts3/SMART-DS/v1.0/2018/SFO_xfmr/P7U/profiles/res_kvar_9164_pu.csv)

New Loadshape.res_kw_1323_pu npts= 35040 interval=0.25 mult = (file=/projects/distcosts3/SMART-DS/v1.0/2018/SFO_xfmr/P7U/profiles/res_kw_1323_pu.csv) qmult = (file=/projects/distcosts3/SMART-DS/v1.0/2018/SFO_xfmr/P7U/profiles/res_kvar_1323_pu.csv)

New Loadshape.res_kw_3710_pu npts= 35040 interval=0.25 mult = (file=/projects/distcosts3/SMART-DS/v1.0/2018/SFO_xfmr/P7U/profiles/res_kw_3710_pu.csv) qmult = (file=/projects/distcosts3/SMART-DS/v1.0/2018/SFO_xfmr/P7U/profiles/res_kvar_3710_pu.csv)

New Loadshape.res_kw_7988_pu npts= 35040 interval=0.25 mult = (file=/projects/distcosts3/SMART-DS/v1.0/2018/SFO_xfmr/P7U/profiles/res_kw_7988_pu.csv) qmult = (file=/projects/distcosts3/SMART-DS/v1.0/2018/SFO_xfmr/P7U/profiles/res_kvar_7988_pu.csv)

New Loadshape.res_kw_13794_pu npts= 35040 interval=0.25 mult = (file=/projects/distcosts3/SMART-DS/v1.0/2018/SFO_xfmr/P7U/profiles/res_kw_13794_pu.csv) qmult = (file=/projects/distcosts3/SMART-DS/v1.0/2018/SFO_xfmr/P7U/profiles/res_kvar_13794_pu.csv)

New Loadshape.res_kw_14952_pu npts= 35040 interval=0.25 mult = (file=/projects/distcosts3/SMART-DS/v1.0/2018/SFO_xfmr/P7U/profiles/res_kw_14952_pu.csv) qmult = (file=/projects/distcosts3/SMART-DS/v1.0/2018/SFO_xfmr/P7U/profiles/res_kvar_14952_pu.csv)

New Loadshape.res_kw_12755_pu npts= 35040 interval=0.25 mult = (file=/projects/distcosts3/SMART-DS/v1.0/2018/SFO_xfmr/P7U/profiles/res_kw_12755_pu.csv) qmult = (file=/projects/distcosts3/SMART-DS/v1.0/2018/SFO_xfmr/P7U/profiles/res_kvar_12755_pu.csv)

New Loadshape.res_kw_3271_pu npts= 35040 interval=0.25 mult = (file=/projects/distcosts3/SMART-DS/v1.0/2018/SFO_xfmr/P7U/profiles/res_kw_3271_pu.csv) qmult = (file=/projects/distcosts3/SMART-DS/v1.0/2018/SFO_xfmr/P7U/profiles/res_kvar_3271_pu.csv)

New Loadshape.res_kw_5577_pu npts= 35040 interval=0.25 mult = (file=/projects/distcosts3/SMART-DS/v1.0/2018/SFO_xfmr/P7U/profiles/res_kw_5577_pu.csv) qmult = (file=/projects/distcosts3/SMART-DS/v1.0/2018/SFO_xfmr/P7U/profiles/res_kvar_5577_pu.csv)

New Loadshape.res_kw_1982_pu npts= 35040 interval=0.25 mult = (file=/projects/distcosts3/SMART-DS/v1.0/2018/SFO_xfmr/P7U/profiles/res_kw_1982_pu.csv) qmult = (file=/projects/distcosts3/SMART-DS/v1.0/2018/SFO_xfmr/P7U/profiles/res_kvar_1982_pu.csv)

New Loadshape.res_kw_11096_pu npts= 35040 interval=0.25 mult = (file=/projects/distcosts3/SMART-DS/v1.0/2018/SFO_xfmr/P7U/profiles/res_kw_11096_pu.csv) qmult = (file=/projects/distcosts3/SMART-DS/v1.0/2018/SFO_xfmr/P7U/profiles/res_kvar_11096_pu.csv)

New Loadshape.res_kw_4348_pu npts= 35040 interval=0.25 mult = (file=/projects/distcosts3/SMART-DS/v1.0/2018/SFO_xfmr/P7U/profiles/res_kw_4348_pu.csv) qmult = (file=/projects/distcosts3/SMART-DS/v1.0/2018/SFO_xfmr/P7U/profiles/res_kvar_4348_pu.csv)

New Loadshape.res_kw_2085_pu npts= 35040 interval=0.25 mult = (file=/projects/distcosts3/SMART-DS/v1.0/2018/SFO_xfmr/P7U/profiles/res_kw_2085_pu.csv) qmult = (file=/projects/distcosts3/SMART-DS/v1.0/2018/SFO_xfmr/P7U/profiles/res_kvar_2085_pu.csv)

New Loadshape.res_kw_6096_pu npts= 35040 interval=0.25 mult = (file=/projects/distcosts3/SMART-DS/v1.0/2018/SFO_xfmr/P7U/profiles/res_kw_6096_pu.csv) qmult = (file=/projects/distcosts3/SMART-DS/v1.0/2018/SFO_xfmr/P7U/profiles/res_kvar_6096_pu.csv)

New Loadshape.res_kw_8268_pu npts= 35040 interval=0.25 mult = (file=/projects/distcosts3/SMART-DS/v1.0/2018/SFO_xfmr/P7U/profiles/res_kw_8268_pu.csv) qmult = (file=/projects/distcosts3/SMART-DS/v1.0/2018/SFO_xfmr/P7U/profiles/res_kvar_8268_pu.csv)

New Loadshape.res_kw_2978_pu npts= 35040 interval=0.25 mult = (file=/projects/distcosts3/SMART-DS/v1.0/2018/SFO_xfmr/P7U/profiles/res_kw_2978_pu.csv) qmult = (file=/projects/distcosts3/SMART-DS/v1.0/2018/SFO_xfmr/P7U/profiles/res_kvar_2978_pu.csv)
