New Loadshape.res_kw_43700_pu npts=96 interval=0.25 mult = (file=../../../profiles/res_kw_43700_pu.csv) qmult = (file=../../../profiles/res_kvar_43700_pu.csv)

New Loadshape.res_kw_22918_pu npts=96 interval=0.25 mult = (file=../../../profiles/res_kw_22918_pu.csv) qmult = (file=../../../profiles/res_kvar_22918_pu.csv)

New Loadshape.res_kw_43133_pu npts=96 interval=0.25 mult = (file=../../../profiles/res_kw_43133_pu.csv) qmult = (file=../../../profiles/res_kvar_43133_pu.csv)

New Loadshape.res_kw_4187_pu npts=96 interval=0.25 mult = (file=../../../profiles/res_kw_4187_pu.csv) qmult = (file=../../../profiles/res_kvar_4187_pu.csv)

New Loadshape.res_kw_20072_pu npts=96 interval=0.25 mult = (file=../../../profiles/res_kw_20072_pu.csv) qmult = (file=../../../profiles/res_kvar_20072_pu.csv)

New Loadshape.res_kw_24323_pu npts=96 interval=0.25 mult = (file=../../../profiles/res_kw_24323_pu.csv) qmult = (file=../../../profiles/res_kvar_24323_pu.csv)

New Loadshape.res_kw_44186_pu npts=96 interval=0.25 mult = (file=../../../profiles/res_kw_44186_pu.csv) qmult = (file=../../../profiles/res_kvar_44186_pu.csv)

New Loadshape.res_kw_30107_pu npts=96 interval=0.25 mult = (file=../../../profiles/res_kw_30107_pu.csv) qmult = (file=../../../profiles/res_kvar_30107_pu.csv)

New Loadshape.res_kw_5334_pu npts=96 interval=0.25 mult = (file=../../../profiles/res_kw_5334_pu.csv) qmult = (file=../../../profiles/res_kvar_5334_pu.csv)

New Loadshape.res_kw_39722_pu npts=96 interval=0.25 mult = (file=../../../profiles/res_kw_39722_pu.csv) qmult = (file=../../../profiles/res_kvar_39722_pu.csv)

New Loadshape.res_kw_6319_pu npts=96 interval=0.25 mult = (file=../../../profiles/res_kw_6319_pu.csv) qmult = (file=../../../profiles/res_kvar_6319_pu.csv)

New Loadshape.res_kw_19084_pu npts=96 interval=0.25 mult = (file=../../../profiles/res_kw_19084_pu.csv) qmult = (file=../../../profiles/res_kvar_19084_pu.csv)

New Loadshape.res_kw_34236_pu npts=96 interval=0.25 mult = (file=../../../profiles/res_kw_34236_pu.csv) qmult = (file=../../../profiles/res_kvar_34236_pu.csv)

New Loadshape.res_kw_39130_pu npts=96 interval=0.25 mult = (file=../../../profiles/res_kw_39130_pu.csv) qmult = (file=../../../profiles/res_kvar_39130_pu.csv)

New Loadshape.res_kw_27486_pu npts=96 interval=0.25 mult = (file=../../../profiles/res_kw_27486_pu.csv) qmult = (file=../../../profiles/res_kvar_27486_pu.csv)

New Loadshape.res_kw_45190_pu npts=96 interval=0.25 mult = (file=../../../profiles/res_kw_45190_pu.csv) qmult = (file=../../../profiles/res_kvar_45190_pu.csv)

New Loadshape.res_kw_2691_pu npts=96 interval=0.25 mult = (file=../../../profiles/res_kw_2691_pu.csv) qmult = (file=../../../profiles/res_kvar_2691_pu.csv)

New Loadshape.res_kw_1409_pu npts=96 interval=0.25 mult = (file=../../../profiles/res_kw_1409_pu.csv) qmult = (file=../../../profiles/res_kvar_1409_pu.csv)

New Loadshape.res_kw_22523_pu npts=96 interval=0.25 mult = (file=../../../profiles/res_kw_22523_pu.csv) qmult = (file=../../../profiles/res_kvar_22523_pu.csv)

New Loadshape.res_kw_13706_pu npts=96 interval=0.25 mult = (file=../../../profiles/res_kw_13706_pu.csv) qmult = (file=../../../profiles/res_kvar_13706_pu.csv)

New Loadshape.res_kw_17316_pu npts=96 interval=0.25 mult = (file=../../../profiles/res_kw_17316_pu.csv) qmult = (file=../../../profiles/res_kvar_17316_pu.csv)

New Loadshape.res_kw_27149_pu npts=96 interval=0.25 mult = (file=../../../profiles/res_kw_27149_pu.csv) qmult = (file=../../../profiles/res_kvar_27149_pu.csv)

New Loadshape.res_kw_7720_pu npts=96 interval=0.25 mult = (file=../../../profiles/res_kw_7720_pu.csv) qmult = (file=../../../profiles/res_kvar_7720_pu.csv)

New Loadshape.res_kw_12476_pu npts=96 interval=0.25 mult = (file=../../../profiles/res_kw_12476_pu.csv) qmult = (file=../../../profiles/res_kvar_12476_pu.csv)

New Loadshape.res_kw_38274_pu npts=96 interval=0.25 mult = (file=../../../profiles/res_kw_38274_pu.csv) qmult = (file=../../../profiles/res_kvar_38274_pu.csv)

New Loadshape.res_kw_39832_pu npts=96 interval=0.25 mult = (file=../../../profiles/res_kw_39832_pu.csv) qmult = (file=../../../profiles/res_kvar_39832_pu.csv)

New Loadshape.res_kw_36295_pu npts=96 interval=0.25 mult = (file=../../../profiles/res_kw_36295_pu.csv) qmult = (file=../../../profiles/res_kvar_36295_pu.csv)

New Loadshape.res_kw_42648_pu npts=96 interval=0.25 mult = (file=../../../profiles/res_kw_42648_pu.csv) qmult = (file=../../../profiles/res_kvar_42648_pu.csv)

New Loadshape.res_kw_25797_pu npts=96 interval=0.25 mult = (file=../../../profiles/res_kw_25797_pu.csv) qmult = (file=../../../profiles/res_kvar_25797_pu.csv)

New Loadshape.res_kw_3541_pu npts=96 interval=0.25 mult = (file=../../../profiles/res_kw_3541_pu.csv) qmult = (file=../../../profiles/res_kvar_3541_pu.csv)

New Loadshape.res_kw_39060_pu npts=96 interval=0.25 mult = (file=../../../profiles/res_kw_39060_pu.csv) qmult = (file=../../../profiles/res_kvar_39060_pu.csv)

New Loadshape.res_kw_29673_pu npts=96 interval=0.25 mult = (file=../../../profiles/res_kw_29673_pu.csv) qmult = (file=../../../profiles/res_kvar_29673_pu.csv)

New Loadshape.res_kw_888_pu npts=96 interval=0.25 mult = (file=../../../profiles/res_kw_888_pu.csv) qmult = (file=../../../profiles/res_kvar_888_pu.csv)

New Loadshape.res_kw_25658_pu npts=96 interval=0.25 mult = (file=../../../profiles/res_kw_25658_pu.csv) qmult = (file=../../../profiles/res_kvar_25658_pu.csv)

New Loadshape.res_kw_33323_pu npts=96 interval=0.25 mult = (file=../../../profiles/res_kw_33323_pu.csv) qmult = (file=../../../profiles/res_kvar_33323_pu.csv)

New Loadshape.res_kw_33656_pu npts=96 interval=0.25 mult = (file=../../../profiles/res_kw_33656_pu.csv) qmult = (file=../../../profiles/res_kvar_33656_pu.csv)

New Loadshape.res_kw_9793_pu npts=96 interval=0.25 mult = (file=../../../profiles/res_kw_9793_pu.csv) qmult = (file=../../../profiles/res_kvar_9793_pu.csv)

New Loadshape.res_kw_18572_pu npts=96 interval=0.25 mult = (file=../../../profiles/res_kw_18572_pu.csv) qmult = (file=../../../profiles/res_kvar_18572_pu.csv)

New Loadshape.res_kw_30694_pu npts=96 interval=0.25 mult = (file=../../../profiles/res_kw_30694_pu.csv) qmult = (file=../../../profiles/res_kvar_30694_pu.csv)

New Loadshape.res_kw_30385_pu npts=96 interval=0.25 mult = (file=../../../profiles/res_kw_30385_pu.csv) qmult = (file=../../../profiles/res_kvar_30385_pu.csv)

New Loadshape.res_kw_39193_pu npts=96 interval=0.25 mult = (file=../../../profiles/res_kw_39193_pu.csv) qmult = (file=../../../profiles/res_kvar_39193_pu.csv)

New Loadshape.res_kw_41288_pu npts=96 interval=0.25 mult = (file=../../../profiles/res_kw_41288_pu.csv) qmult = (file=../../../profiles/res_kvar_41288_pu.csv)

New Loadshape.res_kw_40187_pu npts=96 interval=0.25 mult = (file=../../../profiles/res_kw_40187_pu.csv) qmult = (file=../../../profiles/res_kvar_40187_pu.csv)

New Loadshape.res_kw_6442_pu npts=96 interval=0.25 mult = (file=../../../profiles/res_kw_6442_pu.csv) qmult = (file=../../../profiles/res_kvar_6442_pu.csv)

New Loadshape.res_kw_38211_pu npts=96 interval=0.25 mult = (file=../../../profiles/res_kw_38211_pu.csv) qmult = (file=../../../profiles/res_kvar_38211_pu.csv)

New Loadshape.res_kw_29794_pu npts=96 interval=0.25 mult = (file=../../../profiles/res_kw_29794_pu.csv) qmult = (file=../../../profiles/res_kvar_29794_pu.csv)

New Loadshape.res_kw_13995_pu npts=96 interval=0.25 mult = (file=../../../profiles/res_kw_13995_pu.csv) qmult = (file=../../../profiles/res_kvar_13995_pu.csv)

New Loadshape.res_kw_37123_pu npts=96 interval=0.25 mult = (file=../../../profiles/res_kw_37123_pu.csv) qmult = (file=../../../profiles/res_kvar_37123_pu.csv)

New Loadshape.res_kw_43408_pu npts=96 interval=0.25 mult = (file=../../../profiles/res_kw_43408_pu.csv) qmult = (file=../../../profiles/res_kvar_43408_pu.csv)

New Loadshape.res_kw_16121_pu npts=96 interval=0.25 mult = (file=../../../profiles/res_kw_16121_pu.csv) qmult = (file=../../../profiles/res_kvar_16121_pu.csv)

New Loadshape.res_kw_43287_pu npts=96 interval=0.25 mult = (file=../../../profiles/res_kw_43287_pu.csv) qmult = (file=../../../profiles/res_kvar_43287_pu.csv)

New Loadshape.res_kw_15012_pu npts=96 interval=0.25 mult = (file=../../../profiles/res_kw_15012_pu.csv) qmult = (file=../../../profiles/res_kvar_15012_pu.csv)

New Loadshape.res_kw_35570_pu npts=96 interval=0.25 mult = (file=../../../profiles/res_kw_35570_pu.csv) qmult = (file=../../../profiles/res_kvar_35570_pu.csv)

New Loadshape.res_kw_32751_pu npts=96 interval=0.25 mult = (file=../../../profiles/res_kw_32751_pu.csv) qmult = (file=../../../profiles/res_kvar_32751_pu.csv)

New Loadshape.res_kw_22226_pu npts=96 interval=0.25 mult = (file=../../../profiles/res_kw_22226_pu.csv) qmult = (file=../../../profiles/res_kvar_22226_pu.csv)

New Loadshape.res_kw_42358_pu npts=96 interval=0.25 mult = (file=../../../profiles/res_kw_42358_pu.csv) qmult = (file=../../../profiles/res_kvar_42358_pu.csv)

New Loadshape.res_kw_11700_pu npts=96 interval=0.25 mult = (file=../../../profiles/res_kw_11700_pu.csv) qmult = (file=../../../profiles/res_kvar_11700_pu.csv)

New Loadshape.res_kw_8275_pu npts=96 interval=0.25 mult = (file=../../../profiles/res_kw_8275_pu.csv) qmult = (file=../../../profiles/res_kvar_8275_pu.csv)

New Loadshape.res_kw_36674_pu npts=96 interval=0.25 mult = (file=../../../profiles/res_kw_36674_pu.csv) qmult = (file=../../../profiles/res_kvar_36674_pu.csv)

New Loadshape.res_kw_44725_pu npts=96 interval=0.25 mult = (file=../../../profiles/res_kw_44725_pu.csv) qmult = (file=../../../profiles/res_kvar_44725_pu.csv)

New Loadshape.res_kw_22536_pu npts=96 interval=0.25 mult = (file=../../../profiles/res_kw_22536_pu.csv) qmult = (file=../../../profiles/res_kvar_22536_pu.csv)

New Loadshape.res_kw_13707_pu npts=96 interval=0.25 mult = (file=../../../profiles/res_kw_13707_pu.csv) qmult = (file=../../../profiles/res_kvar_13707_pu.csv)

New Loadshape.res_kw_5253_pu npts=96 interval=0.25 mult = (file=../../../profiles/res_kw_5253_pu.csv) qmult = (file=../../../profiles/res_kvar_5253_pu.csv)

New Loadshape.res_kw_18909_pu npts=96 interval=0.25 mult = (file=../../../profiles/res_kw_18909_pu.csv) qmult = (file=../../../profiles/res_kvar_18909_pu.csv)

New Loadshape.res_kw_39518_pu npts=96 interval=0.25 mult = (file=../../../profiles/res_kw_39518_pu.csv) qmult = (file=../../../profiles/res_kvar_39518_pu.csv)

New Loadshape.res_kw_11598_pu npts=96 interval=0.25 mult = (file=../../../profiles/res_kw_11598_pu.csv) qmult = (file=../../../profiles/res_kvar_11598_pu.csv)

New Loadshape.res_kw_33887_pu npts=96 interval=0.25 mult = (file=../../../profiles/res_kw_33887_pu.csv) qmult = (file=../../../profiles/res_kvar_33887_pu.csv)

New Loadshape.res_kw_4116_pu npts=96 interval=0.25 mult = (file=../../../profiles/res_kw_4116_pu.csv) qmult = (file=../../../profiles/res_kvar_4116_pu.csv)

New Loadshape.res_kw_35369_pu npts=96 interval=0.25 mult = (file=../../../profiles/res_kw_35369_pu.csv) qmult = (file=../../../profiles/res_kvar_35369_pu.csv)

New Loadshape.res_kw_22481_pu npts=96 interval=0.25 mult = (file=../../../profiles/res_kw_22481_pu.csv) qmult = (file=../../../profiles/res_kvar_22481_pu.csv)

New Loadshape.res_kw_6882_pu npts=96 interval=0.25 mult = (file=../../../profiles/res_kw_6882_pu.csv) qmult = (file=../../../profiles/res_kvar_6882_pu.csv)

New Loadshape.res_kw_35128_pu npts=96 interval=0.25 mult = (file=../../../profiles/res_kw_35128_pu.csv) qmult = (file=../../../profiles/res_kvar_35128_pu.csv)

New Loadshape.res_kw_24550_pu npts=96 interval=0.25 mult = (file=../../../profiles/res_kw_24550_pu.csv) qmult = (file=../../../profiles/res_kvar_24550_pu.csv)

New Loadshape.res_kw_29860_pu npts=96 interval=0.25 mult = (file=../../../profiles/res_kw_29860_pu.csv) qmult = (file=../../../profiles/res_kvar_29860_pu.csv)

New Loadshape.res_kw_32430_pu npts=96 interval=0.25 mult = (file=../../../profiles/res_kw_32430_pu.csv) qmult = (file=../../../profiles/res_kvar_32430_pu.csv)

New Loadshape.res_kw_42916_pu npts=96 interval=0.25 mult = (file=../../../profiles/res_kw_42916_pu.csv) qmult = (file=../../../profiles/res_kvar_42916_pu.csv)

New Loadshape.res_kw_12063_pu npts=96 interval=0.25 mult = (file=../../../profiles/res_kw_12063_pu.csv) qmult = (file=../../../profiles/res_kvar_12063_pu.csv)

New Loadshape.res_kw_10477_pu npts=96 interval=0.25 mult = (file=../../../profiles/res_kw_10477_pu.csv) qmult = (file=../../../profiles/res_kvar_10477_pu.csv)

New Loadshape.res_kw_19996_pu npts=96 interval=0.25 mult = (file=../../../profiles/res_kw_19996_pu.csv) qmult = (file=../../../profiles/res_kvar_19996_pu.csv)

New Loadshape.res_kw_37346_pu npts=96 interval=0.25 mult = (file=../../../profiles/res_kw_37346_pu.csv) qmult = (file=../../../profiles/res_kvar_37346_pu.csv)

New Loadshape.com_kw_41858_pu npts=96 interval=0.25 mult = (file=../../../profiles/com_kw_41858_pu.csv) qmult = (file=../../../profiles/com_kvar_41858_pu.csv)

New Loadshape.com_kw_42049_pu npts=96 interval=0.25 mult = (file=../../../profiles/com_kw_42049_pu.csv) qmult = (file=../../../profiles/com_kvar_42049_pu.csv)
